* File: sky130_fd_sc_hdll__muxb8to1_1.pex.spice
* Created: Wed Sep  2 08:36:00 2020
* Program "Calibre xRC"
* Version "v2018.4_34.26"
* Nominal Temperature: 27C
* Circuit Temperature: 27C
* 
.subckt PM_SKY130_FD_SC_HDLL__MUXB8TO1_1%D[0] 1 3 4 6 8 13 15
c28 4 0 5.33021e-20 $X=0.495 $Y=1.41
r29 15 18 2.25478 $w=2.28e-07 $l=4.5e-08 $layer=LI1_cond $X=0.69 $Y=0.51
+ $X2=0.645 $Y2=0.51
r30 10 13 6.18905 $w=2.68e-07 $l=1.45e-07 $layer=LI1_cond $X=0.5 $Y=1.19
+ $X2=0.645 $Y2=1.19
r31 10 11 145.28 $w=1.7e-07 $l=1.7e-07 $layer=licon1_POLY $count=1 $X=0.5
+ $Y=1.16 $X2=0.5 $Y2=1.16
r32 8 13 3.44395 $w=1.7e-07 $l=1.35e-07 $layer=LI1_cond $X=0.645 $Y=1.055
+ $X2=0.645 $Y2=1.19
r33 7 18 2.50919 $w=1.7e-07 $l=1.15e-07 $layer=LI1_cond $X=0.645 $Y=0.625
+ $X2=0.645 $Y2=0.51
r34 7 8 28.0535 $w=1.68e-07 $l=4.3e-07 $layer=LI1_cond $X=0.645 $Y=0.625
+ $X2=0.645 $Y2=1.055
r35 4 11 51.486 $w=2.55e-07 $l=2.52488e-07 $layer=POLY_cond $X=0.495 $Y=1.41
+ $X2=0.5 $Y2=1.16
r36 4 6 153.972 $w=1.8e-07 $l=5.75e-07 $layer=POLY_cond $X=0.495 $Y=1.41
+ $X2=0.495 $Y2=1.985
r37 1 11 39.2931 $w=2.55e-07 $l=1.79374e-07 $layer=POLY_cond $X=0.47 $Y=0.995
+ $X2=0.5 $Y2=1.16
r38 1 3 139.78 $w=1.5e-07 $l=4.35e-07 $layer=POLY_cond $X=0.47 $Y=0.995 $X2=0.47
+ $Y2=0.56
.ends

.subckt PM_SKY130_FD_SC_HDLL__MUXB8TO1_1%A_184_265# 1 2 9 11 12 15 22 26
r56 20 22 9.67586 $w=2.9e-07 $l=3.23497e-07 $layer=LI1_cond $X=1.545 $Y=1.405
+ $X2=1.775 $Y2=1.63
r57 19 26 67.1279 $w=2.19e-07 $l=3.05e-07 $layer=POLY_cond $X=1.325 $Y=1.34
+ $X2=1.02 $Y2=1.34
r58 18 20 9.25517 $w=2.9e-07 $l=2.2e-07 $layer=LI1_cond $X=1.325 $Y=1.405
+ $X2=1.545 $Y2=1.405
r59 18 19 145.28 $w=1.7e-07 $l=1.7e-07 $layer=licon1_POLY $count=1 $X=1.325
+ $Y=1.34 $X2=1.325 $Y2=1.34
r60 15 22 23.5727 $w=3.28e-07 $l=6.75e-07 $layer=LI1_cond $X=1.775 $Y=2.31
+ $X2=1.775 $Y2=1.635
r61 12 20 3.86198 $w=1.7e-07 $l=2.3e-07 $layer=LI1_cond $X=1.545 $Y=1.175
+ $X2=1.545 $Y2=1.405
r62 11 25 8.93631 $w=3.14e-07 $l=3.19202e-07 $layer=LI1_cond $X=1.545 $Y=0.755
+ $X2=1.775 $Y2=0.542
r63 11 12 27.4011 $w=1.68e-07 $l=4.2e-07 $layer=LI1_cond $X=1.545 $Y=0.755
+ $X2=1.545 $Y2=1.175
r64 7 26 7.45852 $w=1.8e-07 $l=1.35e-07 $layer=POLY_cond $X=1.02 $Y=1.475
+ $X2=1.02 $Y2=1.34
r65 7 9 233.226 $w=1.8e-07 $l=6e-07 $layer=POLY_cond $X=1.02 $Y=1.475 $X2=1.02
+ $Y2=2.075
r66 2 22 400 $w=1.7e-07 $l=1.97864e-07 $layer=licon1_PDIFF $count=1 $X=1.65
+ $Y=1.485 $X2=1.775 $Y2=1.63
r67 2 15 400 $w=1.7e-07 $l=8.85297e-07 $layer=licon1_PDIFF $count=1 $X=1.65
+ $Y=1.485 $X2=1.775 $Y2=2.31
r68 1 25 182 $w=1.7e-07 $l=3.16386e-07 $layer=licon1_NDIFF $count=1 $X=1.65
+ $Y=0.235 $X2=1.775 $Y2=0.495
.ends

.subckt PM_SKY130_FD_SC_HDLL__MUXB8TO1_1%S[0] 1 3 4 5 6 8 9 11 12 17
r47 16 17 145.28 $w=1.7e-07 $l=1.7e-07 $layer=licon1_POLY $count=1 $X=1.975
+ $Y=1.03 $X2=1.975 $Y2=1.03
r48 14 16 24.8967 $w=2.42e-07 $l=1.25e-07 $layer=POLY_cond $X=1.975 $Y=0.905
+ $X2=1.975 $Y2=1.03
r49 12 17 4.60977 $w=3.98e-07 $l=1.6e-07 $layer=LI1_cond $X=2.005 $Y=1.19
+ $X2=2.005 $Y2=1.03
r50 9 14 21.8618 $w=2.42e-07 $l=9.08295e-08 $layer=POLY_cond $X=2.01 $Y=0.83
+ $X2=1.975 $Y2=0.905
r51 9 11 107.647 $w=1.5e-07 $l=3.35e-07 $layer=POLY_cond $X=2.01 $Y=0.83
+ $X2=2.01 $Y2=0.495
r52 6 16 78.9522 $w=2.42e-07 $l=3.97115e-07 $layer=POLY_cond $X=2.01 $Y=1.41
+ $X2=1.975 $Y2=1.03
r53 6 8 153.972 $w=1.8e-07 $l=5.75e-07 $layer=POLY_cond $X=2.01 $Y=1.41 $X2=2.01
+ $Y2=1.985
r54 4 14 13.9682 $w=1.5e-07 $l=1.35e-07 $layer=POLY_cond $X=1.84 $Y=0.905
+ $X2=1.975 $Y2=0.905
r55 4 5 420.468 $w=1.5e-07 $l=8.2e-07 $layer=POLY_cond $X=1.84 $Y=0.905 $X2=1.02
+ $Y2=0.905
r56 1 5 26.9307 $w=1.5e-07 $l=1.06066e-07 $layer=POLY_cond $X=0.945 $Y=0.83
+ $X2=1.02 $Y2=0.905
r57 1 3 107.647 $w=1.5e-07 $l=3.35e-07 $layer=POLY_cond $X=0.945 $Y=0.83
+ $X2=0.945 $Y2=0.495
.ends

.subckt PM_SKY130_FD_SC_HDLL__MUXB8TO1_1%S[1] 1 3 4 6 7 9 11 12 17
r44 16 17 145.28 $w=1.7e-07 $l=1.7e-07 $layer=licon1_POLY $count=1 $X=2.625
+ $Y=1.03 $X2=2.625 $Y2=1.03
r45 14 16 24.8967 $w=2.42e-07 $l=1.25e-07 $layer=POLY_cond $X=2.625 $Y=0.905
+ $X2=2.625 $Y2=1.03
r46 12 17 4.60977 $w=3.98e-07 $l=1.6e-07 $layer=LI1_cond $X=2.595 $Y=1.19
+ $X2=2.595 $Y2=1.03
r47 9 11 107.647 $w=1.5e-07 $l=3.35e-07 $layer=POLY_cond $X=3.655 $Y=0.83
+ $X2=3.655 $Y2=0.495
r48 8 14 13.9682 $w=1.5e-07 $l=1.35e-07 $layer=POLY_cond $X=2.76 $Y=0.905
+ $X2=2.625 $Y2=0.905
r49 7 9 26.9307 $w=1.5e-07 $l=1.06066e-07 $layer=POLY_cond $X=3.58 $Y=0.905
+ $X2=3.655 $Y2=0.83
r50 7 8 420.468 $w=1.5e-07 $l=8.2e-07 $layer=POLY_cond $X=3.58 $Y=0.905 $X2=2.76
+ $Y2=0.905
r51 4 14 21.8618 $w=2.42e-07 $l=9.08295e-08 $layer=POLY_cond $X=2.59 $Y=0.83
+ $X2=2.625 $Y2=0.905
r52 4 6 107.647 $w=1.5e-07 $l=3.35e-07 $layer=POLY_cond $X=2.59 $Y=0.83 $X2=2.59
+ $Y2=0.495
r53 1 16 78.9522 $w=2.42e-07 $l=3.97115e-07 $layer=POLY_cond $X=2.59 $Y=1.41
+ $X2=2.625 $Y2=1.03
r54 1 3 153.972 $w=1.8e-07 $l=5.75e-07 $layer=POLY_cond $X=2.59 $Y=1.41 $X2=2.59
+ $Y2=1.985
.ends

.subckt PM_SKY130_FD_SC_HDLL__MUXB8TO1_1%A_533_47# 1 2 9 13 16 19 22 24
r55 22 27 67.1279 $w=2.19e-07 $l=3.05e-07 $layer=POLY_cond $X=3.275 $Y=1.34
+ $X2=3.58 $Y2=1.34
r56 21 22 145.28 $w=1.7e-07 $l=1.7e-07 $layer=licon1_POLY $count=1 $X=3.275
+ $Y=1.34 $X2=3.275 $Y2=1.34
r57 19 21 9.25517 $w=2.9e-07 $l=2.2e-07 $layer=LI1_cond $X=3.055 $Y=1.405
+ $X2=3.275 $Y2=1.405
r58 18 19 9.67586 $w=2.9e-07 $l=3.23497e-07 $layer=LI1_cond $X=2.825 $Y=1.63
+ $X2=3.055 $Y2=1.405
r59 16 19 3.86198 $w=1.7e-07 $l=2.3e-07 $layer=LI1_cond $X=3.055 $Y=1.175
+ $X2=3.055 $Y2=1.405
r60 15 24 8.93631 $w=3.14e-07 $l=3.19202e-07 $layer=LI1_cond $X=3.055 $Y=0.755
+ $X2=2.825 $Y2=0.542
r61 15 16 27.4011 $w=1.68e-07 $l=4.2e-07 $layer=LI1_cond $X=3.055 $Y=0.755
+ $X2=3.055 $Y2=1.175
r62 13 18 23.5727 $w=3.28e-07 $l=6.75e-07 $layer=LI1_cond $X=2.825 $Y=2.31
+ $X2=2.825 $Y2=1.635
r63 7 27 7.45852 $w=1.8e-07 $l=1.35e-07 $layer=POLY_cond $X=3.58 $Y=1.475
+ $X2=3.58 $Y2=1.34
r64 7 9 233.226 $w=1.8e-07 $l=6e-07 $layer=POLY_cond $X=3.58 $Y=1.475 $X2=3.58
+ $Y2=2.075
r65 2 18 400 $w=1.7e-07 $l=2.05061e-07 $layer=licon1_PDIFF $count=1 $X=2.68
+ $Y=1.485 $X2=2.825 $Y2=1.63
r66 2 13 400 $w=1.7e-07 $l=8.94567e-07 $layer=licon1_PDIFF $count=1 $X=2.68
+ $Y=1.485 $X2=2.825 $Y2=2.31
r67 1 24 182 $w=1.7e-07 $l=3.30454e-07 $layer=licon1_NDIFF $count=1 $X=2.665
+ $Y=0.235 $X2=2.825 $Y2=0.495
.ends

.subckt PM_SKY130_FD_SC_HDLL__MUXB8TO1_1%D[1] 1 3 4 6 8 12 15 21
c37 8 0 1.78369e-19 $X=3.955 $Y=1.055
c38 1 0 2.31671e-19 $X=4.105 $Y=1.41
r39 15 21 2.25478 $w=2.28e-07 $l=4.5e-08 $layer=LI1_cond $X=3.91 $Y=0.51
+ $X2=3.955 $Y2=0.51
r40 12 13 145.28 $w=1.7e-07 $l=1.7e-07 $layer=licon1_POLY $count=1 $X=4.1
+ $Y=1.16 $X2=4.1 $Y2=1.16
r41 9 12 6.18905 $w=2.68e-07 $l=1.45e-07 $layer=LI1_cond $X=3.955 $Y=1.19
+ $X2=4.1 $Y2=1.19
r42 8 9 3.44395 $w=1.7e-07 $l=1.35e-07 $layer=LI1_cond $X=3.955 $Y=1.055
+ $X2=3.955 $Y2=1.19
r43 7 21 2.50919 $w=1.7e-07 $l=1.15e-07 $layer=LI1_cond $X=3.955 $Y=0.625
+ $X2=3.955 $Y2=0.51
r44 7 8 28.0535 $w=1.68e-07 $l=4.3e-07 $layer=LI1_cond $X=3.955 $Y=0.625
+ $X2=3.955 $Y2=1.055
r45 4 13 39.2931 $w=2.55e-07 $l=1.79374e-07 $layer=POLY_cond $X=4.13 $Y=0.995
+ $X2=4.1 $Y2=1.16
r46 4 6 139.78 $w=1.5e-07 $l=4.35e-07 $layer=POLY_cond $X=4.13 $Y=0.995 $X2=4.13
+ $Y2=0.56
r47 1 13 51.486 $w=2.55e-07 $l=2.52488e-07 $layer=POLY_cond $X=4.105 $Y=1.41
+ $X2=4.1 $Y2=1.16
r48 1 3 153.972 $w=1.8e-07 $l=5.75e-07 $layer=POLY_cond $X=4.105 $Y=1.41
+ $X2=4.105 $Y2=1.985
.ends

.subckt PM_SKY130_FD_SC_HDLL__MUXB8TO1_1%D[2] 1 3 4 6 8 13 15
c37 8 0 1.78369e-19 $X=4.785 $Y=1.055
c38 4 0 2.31671e-19 $X=4.635 $Y=1.41
r39 15 18 2.25478 $w=2.28e-07 $l=4.5e-08 $layer=LI1_cond $X=4.83 $Y=0.51
+ $X2=4.785 $Y2=0.51
r40 10 13 6.18905 $w=2.68e-07 $l=1.45e-07 $layer=LI1_cond $X=4.64 $Y=1.19
+ $X2=4.785 $Y2=1.19
r41 10 11 145.28 $w=1.7e-07 $l=1.7e-07 $layer=licon1_POLY $count=1 $X=4.64
+ $Y=1.16 $X2=4.64 $Y2=1.16
r42 8 13 3.44395 $w=1.7e-07 $l=1.35e-07 $layer=LI1_cond $X=4.785 $Y=1.055
+ $X2=4.785 $Y2=1.19
r43 7 18 2.50919 $w=1.7e-07 $l=1.15e-07 $layer=LI1_cond $X=4.785 $Y=0.625
+ $X2=4.785 $Y2=0.51
r44 7 8 28.0535 $w=1.68e-07 $l=4.3e-07 $layer=LI1_cond $X=4.785 $Y=0.625
+ $X2=4.785 $Y2=1.055
r45 4 11 51.486 $w=2.55e-07 $l=2.52488e-07 $layer=POLY_cond $X=4.635 $Y=1.41
+ $X2=4.64 $Y2=1.16
r46 4 6 153.972 $w=1.8e-07 $l=5.75e-07 $layer=POLY_cond $X=4.635 $Y=1.41
+ $X2=4.635 $Y2=1.985
r47 1 11 39.2931 $w=2.55e-07 $l=1.79374e-07 $layer=POLY_cond $X=4.61 $Y=0.995
+ $X2=4.64 $Y2=1.16
r48 1 3 139.78 $w=1.5e-07 $l=4.35e-07 $layer=POLY_cond $X=4.61 $Y=0.995 $X2=4.61
+ $Y2=0.56
.ends

.subckt PM_SKY130_FD_SC_HDLL__MUXB8TO1_1%A_1012_265# 1 2 9 11 12 15 22 26
r56 20 22 9.67586 $w=2.9e-07 $l=3.23497e-07 $layer=LI1_cond $X=5.685 $Y=1.405
+ $X2=5.915 $Y2=1.63
r57 19 26 67.1279 $w=2.19e-07 $l=3.05e-07 $layer=POLY_cond $X=5.465 $Y=1.34
+ $X2=5.16 $Y2=1.34
r58 18 20 9.25517 $w=2.9e-07 $l=2.2e-07 $layer=LI1_cond $X=5.465 $Y=1.405
+ $X2=5.685 $Y2=1.405
r59 18 19 145.28 $w=1.7e-07 $l=1.7e-07 $layer=licon1_POLY $count=1 $X=5.465
+ $Y=1.34 $X2=5.465 $Y2=1.34
r60 15 22 23.5727 $w=3.28e-07 $l=6.75e-07 $layer=LI1_cond $X=5.915 $Y=2.31
+ $X2=5.915 $Y2=1.635
r61 12 20 3.86198 $w=1.7e-07 $l=2.3e-07 $layer=LI1_cond $X=5.685 $Y=1.175
+ $X2=5.685 $Y2=1.405
r62 11 25 8.93631 $w=3.14e-07 $l=3.19202e-07 $layer=LI1_cond $X=5.685 $Y=0.755
+ $X2=5.915 $Y2=0.542
r63 11 12 27.4011 $w=1.68e-07 $l=4.2e-07 $layer=LI1_cond $X=5.685 $Y=0.755
+ $X2=5.685 $Y2=1.175
r64 7 26 7.45852 $w=1.8e-07 $l=1.35e-07 $layer=POLY_cond $X=5.16 $Y=1.475
+ $X2=5.16 $Y2=1.34
r65 7 9 233.226 $w=1.8e-07 $l=6e-07 $layer=POLY_cond $X=5.16 $Y=1.475 $X2=5.16
+ $Y2=2.075
r66 2 22 400 $w=1.7e-07 $l=1.97864e-07 $layer=licon1_PDIFF $count=1 $X=5.79
+ $Y=1.485 $X2=5.915 $Y2=1.63
r67 2 15 400 $w=1.7e-07 $l=8.85297e-07 $layer=licon1_PDIFF $count=1 $X=5.79
+ $Y=1.485 $X2=5.915 $Y2=2.31
r68 1 25 182 $w=1.7e-07 $l=3.16386e-07 $layer=licon1_NDIFF $count=1 $X=5.79
+ $Y=0.235 $X2=5.915 $Y2=0.495
.ends

.subckt PM_SKY130_FD_SC_HDLL__MUXB8TO1_1%S[2] 1 3 4 5 6 8 9 11 12 17
r47 16 17 145.28 $w=1.7e-07 $l=1.7e-07 $layer=licon1_POLY $count=1 $X=6.115
+ $Y=1.03 $X2=6.115 $Y2=1.03
r48 14 16 24.8967 $w=2.42e-07 $l=1.25e-07 $layer=POLY_cond $X=6.115 $Y=0.905
+ $X2=6.115 $Y2=1.03
r49 12 17 4.60977 $w=3.98e-07 $l=1.6e-07 $layer=LI1_cond $X=6.145 $Y=1.19
+ $X2=6.145 $Y2=1.03
r50 9 14 21.8618 $w=2.42e-07 $l=9.08295e-08 $layer=POLY_cond $X=6.15 $Y=0.83
+ $X2=6.115 $Y2=0.905
r51 9 11 107.647 $w=1.5e-07 $l=3.35e-07 $layer=POLY_cond $X=6.15 $Y=0.83
+ $X2=6.15 $Y2=0.495
r52 6 16 78.9522 $w=2.42e-07 $l=3.97115e-07 $layer=POLY_cond $X=6.15 $Y=1.41
+ $X2=6.115 $Y2=1.03
r53 6 8 153.972 $w=1.8e-07 $l=5.75e-07 $layer=POLY_cond $X=6.15 $Y=1.41 $X2=6.15
+ $Y2=1.985
r54 4 14 13.9682 $w=1.5e-07 $l=1.35e-07 $layer=POLY_cond $X=5.98 $Y=0.905
+ $X2=6.115 $Y2=0.905
r55 4 5 420.468 $w=1.5e-07 $l=8.2e-07 $layer=POLY_cond $X=5.98 $Y=0.905 $X2=5.16
+ $Y2=0.905
r56 1 5 26.9307 $w=1.5e-07 $l=1.06066e-07 $layer=POLY_cond $X=5.085 $Y=0.83
+ $X2=5.16 $Y2=0.905
r57 1 3 107.647 $w=1.5e-07 $l=3.35e-07 $layer=POLY_cond $X=5.085 $Y=0.83
+ $X2=5.085 $Y2=0.495
.ends

.subckt PM_SKY130_FD_SC_HDLL__MUXB8TO1_1%S[3] 1 3 4 6 7 9 11 12 17
r44 16 17 145.28 $w=1.7e-07 $l=1.7e-07 $layer=licon1_POLY $count=1 $X=6.765
+ $Y=1.03 $X2=6.765 $Y2=1.03
r45 14 16 24.8967 $w=2.42e-07 $l=1.25e-07 $layer=POLY_cond $X=6.765 $Y=0.905
+ $X2=6.765 $Y2=1.03
r46 12 17 4.60977 $w=3.98e-07 $l=1.6e-07 $layer=LI1_cond $X=6.735 $Y=1.19
+ $X2=6.735 $Y2=1.03
r47 9 11 107.647 $w=1.5e-07 $l=3.35e-07 $layer=POLY_cond $X=7.795 $Y=0.83
+ $X2=7.795 $Y2=0.495
r48 8 14 13.9682 $w=1.5e-07 $l=1.35e-07 $layer=POLY_cond $X=6.9 $Y=0.905
+ $X2=6.765 $Y2=0.905
r49 7 9 26.9307 $w=1.5e-07 $l=1.06066e-07 $layer=POLY_cond $X=7.72 $Y=0.905
+ $X2=7.795 $Y2=0.83
r50 7 8 420.468 $w=1.5e-07 $l=8.2e-07 $layer=POLY_cond $X=7.72 $Y=0.905 $X2=6.9
+ $Y2=0.905
r51 4 14 21.8618 $w=2.42e-07 $l=9.08295e-08 $layer=POLY_cond $X=6.73 $Y=0.83
+ $X2=6.765 $Y2=0.905
r52 4 6 107.647 $w=1.5e-07 $l=3.35e-07 $layer=POLY_cond $X=6.73 $Y=0.83 $X2=6.73
+ $Y2=0.495
r53 1 16 78.9522 $w=2.42e-07 $l=3.97115e-07 $layer=POLY_cond $X=6.73 $Y=1.41
+ $X2=6.765 $Y2=1.03
r54 1 3 153.972 $w=1.8e-07 $l=5.75e-07 $layer=POLY_cond $X=6.73 $Y=1.41 $X2=6.73
+ $Y2=1.985
.ends

.subckt PM_SKY130_FD_SC_HDLL__MUXB8TO1_1%A_1361_47# 1 2 9 13 16 19 22 24
r55 22 27 67.1279 $w=2.19e-07 $l=3.05e-07 $layer=POLY_cond $X=7.415 $Y=1.34
+ $X2=7.72 $Y2=1.34
r56 21 22 145.28 $w=1.7e-07 $l=1.7e-07 $layer=licon1_POLY $count=1 $X=7.415
+ $Y=1.34 $X2=7.415 $Y2=1.34
r57 19 21 9.25517 $w=2.9e-07 $l=2.2e-07 $layer=LI1_cond $X=7.195 $Y=1.405
+ $X2=7.415 $Y2=1.405
r58 18 19 9.67586 $w=2.9e-07 $l=3.23497e-07 $layer=LI1_cond $X=6.965 $Y=1.63
+ $X2=7.195 $Y2=1.405
r59 16 19 3.86198 $w=1.7e-07 $l=2.3e-07 $layer=LI1_cond $X=7.195 $Y=1.175
+ $X2=7.195 $Y2=1.405
r60 15 24 8.93631 $w=3.14e-07 $l=3.19202e-07 $layer=LI1_cond $X=7.195 $Y=0.755
+ $X2=6.965 $Y2=0.542
r61 15 16 27.4011 $w=1.68e-07 $l=4.2e-07 $layer=LI1_cond $X=7.195 $Y=0.755
+ $X2=7.195 $Y2=1.175
r62 13 18 23.5727 $w=3.28e-07 $l=6.75e-07 $layer=LI1_cond $X=6.965 $Y=2.31
+ $X2=6.965 $Y2=1.635
r63 7 27 7.45852 $w=1.8e-07 $l=1.35e-07 $layer=POLY_cond $X=7.72 $Y=1.475
+ $X2=7.72 $Y2=1.34
r64 7 9 233.226 $w=1.8e-07 $l=6e-07 $layer=POLY_cond $X=7.72 $Y=1.475 $X2=7.72
+ $Y2=2.075
r65 2 18 400 $w=1.7e-07 $l=2.05061e-07 $layer=licon1_PDIFF $count=1 $X=6.82
+ $Y=1.485 $X2=6.965 $Y2=1.63
r66 2 13 400 $w=1.7e-07 $l=8.94567e-07 $layer=licon1_PDIFF $count=1 $X=6.82
+ $Y=1.485 $X2=6.965 $Y2=2.31
r67 1 24 182 $w=1.7e-07 $l=3.30454e-07 $layer=licon1_NDIFF $count=1 $X=6.805
+ $Y=0.235 $X2=6.965 $Y2=0.495
.ends

.subckt PM_SKY130_FD_SC_HDLL__MUXB8TO1_1%D[3] 1 3 4 6 8 12 15 21
c37 8 0 1.78369e-19 $X=8.095 $Y=1.055
c38 1 0 2.31671e-19 $X=8.245 $Y=1.41
r39 15 21 2.25478 $w=2.28e-07 $l=4.5e-08 $layer=LI1_cond $X=8.05 $Y=0.51
+ $X2=8.095 $Y2=0.51
r40 12 13 145.28 $w=1.7e-07 $l=1.7e-07 $layer=licon1_POLY $count=1 $X=8.24
+ $Y=1.16 $X2=8.24 $Y2=1.16
r41 9 12 6.18905 $w=2.68e-07 $l=1.45e-07 $layer=LI1_cond $X=8.095 $Y=1.19
+ $X2=8.24 $Y2=1.19
r42 8 9 3.44395 $w=1.7e-07 $l=1.35e-07 $layer=LI1_cond $X=8.095 $Y=1.055
+ $X2=8.095 $Y2=1.19
r43 7 21 2.50919 $w=1.7e-07 $l=1.15e-07 $layer=LI1_cond $X=8.095 $Y=0.625
+ $X2=8.095 $Y2=0.51
r44 7 8 28.0535 $w=1.68e-07 $l=4.3e-07 $layer=LI1_cond $X=8.095 $Y=0.625
+ $X2=8.095 $Y2=1.055
r45 4 13 39.2931 $w=2.55e-07 $l=1.79374e-07 $layer=POLY_cond $X=8.27 $Y=0.995
+ $X2=8.24 $Y2=1.16
r46 4 6 139.78 $w=1.5e-07 $l=4.35e-07 $layer=POLY_cond $X=8.27 $Y=0.995 $X2=8.27
+ $Y2=0.56
r47 1 13 51.486 $w=2.55e-07 $l=2.52488e-07 $layer=POLY_cond $X=8.245 $Y=1.41
+ $X2=8.24 $Y2=1.16
r48 1 3 153.972 $w=1.8e-07 $l=5.75e-07 $layer=POLY_cond $X=8.245 $Y=1.41
+ $X2=8.245 $Y2=1.985
.ends

.subckt PM_SKY130_FD_SC_HDLL__MUXB8TO1_1%D[4] 1 3 4 6 8 13 15
c37 8 0 1.78369e-19 $X=8.925 $Y=1.055
c38 4 0 2.31671e-19 $X=8.775 $Y=1.41
r39 15 18 2.25478 $w=2.28e-07 $l=4.5e-08 $layer=LI1_cond $X=8.97 $Y=0.51
+ $X2=8.925 $Y2=0.51
r40 10 13 6.18905 $w=2.68e-07 $l=1.45e-07 $layer=LI1_cond $X=8.78 $Y=1.19
+ $X2=8.925 $Y2=1.19
r41 10 11 145.28 $w=1.7e-07 $l=1.7e-07 $layer=licon1_POLY $count=1 $X=8.78
+ $Y=1.16 $X2=8.78 $Y2=1.16
r42 8 13 3.44395 $w=1.7e-07 $l=1.35e-07 $layer=LI1_cond $X=8.925 $Y=1.055
+ $X2=8.925 $Y2=1.19
r43 7 18 2.50919 $w=1.7e-07 $l=1.15e-07 $layer=LI1_cond $X=8.925 $Y=0.625
+ $X2=8.925 $Y2=0.51
r44 7 8 28.0535 $w=1.68e-07 $l=4.3e-07 $layer=LI1_cond $X=8.925 $Y=0.625
+ $X2=8.925 $Y2=1.055
r45 4 11 51.486 $w=2.55e-07 $l=2.52488e-07 $layer=POLY_cond $X=8.775 $Y=1.41
+ $X2=8.78 $Y2=1.16
r46 4 6 153.972 $w=1.8e-07 $l=5.75e-07 $layer=POLY_cond $X=8.775 $Y=1.41
+ $X2=8.775 $Y2=1.985
r47 1 11 39.2931 $w=2.55e-07 $l=1.79374e-07 $layer=POLY_cond $X=8.75 $Y=0.995
+ $X2=8.78 $Y2=1.16
r48 1 3 139.78 $w=1.5e-07 $l=4.35e-07 $layer=POLY_cond $X=8.75 $Y=0.995 $X2=8.75
+ $Y2=0.56
.ends

.subckt PM_SKY130_FD_SC_HDLL__MUXB8TO1_1%A_1840_265# 1 2 9 11 12 15 22 26
r56 20 22 9.67586 $w=2.9e-07 $l=3.23497e-07 $layer=LI1_cond $X=9.825 $Y=1.405
+ $X2=10.055 $Y2=1.63
r57 19 26 67.1279 $w=2.19e-07 $l=3.05e-07 $layer=POLY_cond $X=9.605 $Y=1.34
+ $X2=9.3 $Y2=1.34
r58 18 20 9.25517 $w=2.9e-07 $l=2.2e-07 $layer=LI1_cond $X=9.605 $Y=1.405
+ $X2=9.825 $Y2=1.405
r59 18 19 145.28 $w=1.7e-07 $l=1.7e-07 $layer=licon1_POLY $count=1 $X=9.605
+ $Y=1.34 $X2=9.605 $Y2=1.34
r60 15 22 23.5727 $w=3.28e-07 $l=6.75e-07 $layer=LI1_cond $X=10.055 $Y=2.31
+ $X2=10.055 $Y2=1.635
r61 12 20 3.86198 $w=1.7e-07 $l=2.3e-07 $layer=LI1_cond $X=9.825 $Y=1.175
+ $X2=9.825 $Y2=1.405
r62 11 25 8.93631 $w=3.14e-07 $l=3.19202e-07 $layer=LI1_cond $X=9.825 $Y=0.755
+ $X2=10.055 $Y2=0.542
r63 11 12 27.4011 $w=1.68e-07 $l=4.2e-07 $layer=LI1_cond $X=9.825 $Y=0.755
+ $X2=9.825 $Y2=1.175
r64 7 26 7.45852 $w=1.8e-07 $l=1.35e-07 $layer=POLY_cond $X=9.3 $Y=1.475 $X2=9.3
+ $Y2=1.34
r65 7 9 233.226 $w=1.8e-07 $l=6e-07 $layer=POLY_cond $X=9.3 $Y=1.475 $X2=9.3
+ $Y2=2.075
r66 2 22 400 $w=1.7e-07 $l=1.97864e-07 $layer=licon1_PDIFF $count=1 $X=9.93
+ $Y=1.485 $X2=10.055 $Y2=1.63
r67 2 15 400 $w=1.7e-07 $l=8.85297e-07 $layer=licon1_PDIFF $count=1 $X=9.93
+ $Y=1.485 $X2=10.055 $Y2=2.31
r68 1 25 182 $w=1.7e-07 $l=3.16386e-07 $layer=licon1_NDIFF $count=1 $X=9.93
+ $Y=0.235 $X2=10.055 $Y2=0.495
.ends

.subckt PM_SKY130_FD_SC_HDLL__MUXB8TO1_1%S[4] 1 3 4 5 6 8 9 11 12 17
r47 16 17 145.28 $w=1.7e-07 $l=1.7e-07 $layer=licon1_POLY $count=1 $X=10.255
+ $Y=1.03 $X2=10.255 $Y2=1.03
r48 14 16 24.8967 $w=2.42e-07 $l=1.25e-07 $layer=POLY_cond $X=10.255 $Y=0.905
+ $X2=10.255 $Y2=1.03
r49 12 17 4.60977 $w=3.98e-07 $l=1.6e-07 $layer=LI1_cond $X=10.285 $Y=1.19
+ $X2=10.285 $Y2=1.03
r50 9 14 21.8618 $w=2.42e-07 $l=9.08295e-08 $layer=POLY_cond $X=10.29 $Y=0.83
+ $X2=10.255 $Y2=0.905
r51 9 11 107.647 $w=1.5e-07 $l=3.35e-07 $layer=POLY_cond $X=10.29 $Y=0.83
+ $X2=10.29 $Y2=0.495
r52 6 16 78.9522 $w=2.42e-07 $l=3.97115e-07 $layer=POLY_cond $X=10.29 $Y=1.41
+ $X2=10.255 $Y2=1.03
r53 6 8 153.972 $w=1.8e-07 $l=5.75e-07 $layer=POLY_cond $X=10.29 $Y=1.41
+ $X2=10.29 $Y2=1.985
r54 4 14 13.9682 $w=1.5e-07 $l=1.35e-07 $layer=POLY_cond $X=10.12 $Y=0.905
+ $X2=10.255 $Y2=0.905
r55 4 5 420.468 $w=1.5e-07 $l=8.2e-07 $layer=POLY_cond $X=10.12 $Y=0.905 $X2=9.3
+ $Y2=0.905
r56 1 5 26.9307 $w=1.5e-07 $l=1.06066e-07 $layer=POLY_cond $X=9.225 $Y=0.83
+ $X2=9.3 $Y2=0.905
r57 1 3 107.647 $w=1.5e-07 $l=3.35e-07 $layer=POLY_cond $X=9.225 $Y=0.83
+ $X2=9.225 $Y2=0.495
.ends

.subckt PM_SKY130_FD_SC_HDLL__MUXB8TO1_1%S[5] 1 3 4 6 7 9 11 12 17
r44 16 17 145.28 $w=1.7e-07 $l=1.7e-07 $layer=licon1_POLY $count=1 $X=10.905
+ $Y=1.03 $X2=10.905 $Y2=1.03
r45 14 16 24.8967 $w=2.42e-07 $l=1.25e-07 $layer=POLY_cond $X=10.905 $Y=0.905
+ $X2=10.905 $Y2=1.03
r46 12 17 4.60977 $w=3.98e-07 $l=1.6e-07 $layer=LI1_cond $X=10.875 $Y=1.19
+ $X2=10.875 $Y2=1.03
r47 9 11 107.647 $w=1.5e-07 $l=3.35e-07 $layer=POLY_cond $X=11.935 $Y=0.83
+ $X2=11.935 $Y2=0.495
r48 8 14 13.9682 $w=1.5e-07 $l=1.35e-07 $layer=POLY_cond $X=11.04 $Y=0.905
+ $X2=10.905 $Y2=0.905
r49 7 9 26.9307 $w=1.5e-07 $l=1.06066e-07 $layer=POLY_cond $X=11.86 $Y=0.905
+ $X2=11.935 $Y2=0.83
r50 7 8 420.468 $w=1.5e-07 $l=8.2e-07 $layer=POLY_cond $X=11.86 $Y=0.905
+ $X2=11.04 $Y2=0.905
r51 4 14 21.8618 $w=2.42e-07 $l=9.08295e-08 $layer=POLY_cond $X=10.87 $Y=0.83
+ $X2=10.905 $Y2=0.905
r52 4 6 107.647 $w=1.5e-07 $l=3.35e-07 $layer=POLY_cond $X=10.87 $Y=0.83
+ $X2=10.87 $Y2=0.495
r53 1 16 78.9522 $w=2.42e-07 $l=3.97115e-07 $layer=POLY_cond $X=10.87 $Y=1.41
+ $X2=10.905 $Y2=1.03
r54 1 3 153.972 $w=1.8e-07 $l=5.75e-07 $layer=POLY_cond $X=10.87 $Y=1.41
+ $X2=10.87 $Y2=1.985
.ends

.subckt PM_SKY130_FD_SC_HDLL__MUXB8TO1_1%A_2189_47# 1 2 9 13 16 19 22 24
r55 22 27 67.1279 $w=2.19e-07 $l=3.05e-07 $layer=POLY_cond $X=11.555 $Y=1.34
+ $X2=11.86 $Y2=1.34
r56 21 22 145.28 $w=1.7e-07 $l=1.7e-07 $layer=licon1_POLY $count=1 $X=11.555
+ $Y=1.34 $X2=11.555 $Y2=1.34
r57 19 21 9.25517 $w=2.9e-07 $l=2.2e-07 $layer=LI1_cond $X=11.335 $Y=1.405
+ $X2=11.555 $Y2=1.405
r58 18 19 9.67586 $w=2.9e-07 $l=3.23497e-07 $layer=LI1_cond $X=11.105 $Y=1.63
+ $X2=11.335 $Y2=1.405
r59 16 19 3.86198 $w=1.7e-07 $l=2.3e-07 $layer=LI1_cond $X=11.335 $Y=1.175
+ $X2=11.335 $Y2=1.405
r60 15 24 8.93631 $w=3.14e-07 $l=3.19202e-07 $layer=LI1_cond $X=11.335 $Y=0.755
+ $X2=11.105 $Y2=0.542
r61 15 16 27.4011 $w=1.68e-07 $l=4.2e-07 $layer=LI1_cond $X=11.335 $Y=0.755
+ $X2=11.335 $Y2=1.175
r62 13 18 23.5727 $w=3.28e-07 $l=6.75e-07 $layer=LI1_cond $X=11.105 $Y=2.31
+ $X2=11.105 $Y2=1.635
r63 7 27 7.45852 $w=1.8e-07 $l=1.35e-07 $layer=POLY_cond $X=11.86 $Y=1.475
+ $X2=11.86 $Y2=1.34
r64 7 9 233.226 $w=1.8e-07 $l=6e-07 $layer=POLY_cond $X=11.86 $Y=1.475 $X2=11.86
+ $Y2=2.075
r65 2 18 400 $w=1.7e-07 $l=2.05061e-07 $layer=licon1_PDIFF $count=1 $X=10.96
+ $Y=1.485 $X2=11.105 $Y2=1.63
r66 2 13 400 $w=1.7e-07 $l=8.94567e-07 $layer=licon1_PDIFF $count=1 $X=10.96
+ $Y=1.485 $X2=11.105 $Y2=2.31
r67 1 24 182 $w=1.7e-07 $l=3.30454e-07 $layer=licon1_NDIFF $count=1 $X=10.945
+ $Y=0.235 $X2=11.105 $Y2=0.495
.ends

.subckt PM_SKY130_FD_SC_HDLL__MUXB8TO1_1%D[5] 1 3 4 6 8 12 15 21
c37 8 0 1.78369e-19 $X=12.235 $Y=1.055
c38 1 0 2.31671e-19 $X=12.385 $Y=1.41
r39 15 21 2.25478 $w=2.28e-07 $l=4.5e-08 $layer=LI1_cond $X=12.19 $Y=0.51
+ $X2=12.235 $Y2=0.51
r40 12 13 145.28 $w=1.7e-07 $l=1.7e-07 $layer=licon1_POLY $count=1 $X=12.38
+ $Y=1.16 $X2=12.38 $Y2=1.16
r41 9 12 6.18905 $w=2.68e-07 $l=1.45e-07 $layer=LI1_cond $X=12.235 $Y=1.19
+ $X2=12.38 $Y2=1.19
r42 8 9 3.44395 $w=1.7e-07 $l=1.35e-07 $layer=LI1_cond $X=12.235 $Y=1.055
+ $X2=12.235 $Y2=1.19
r43 7 21 2.50919 $w=1.7e-07 $l=1.15e-07 $layer=LI1_cond $X=12.235 $Y=0.625
+ $X2=12.235 $Y2=0.51
r44 7 8 28.0535 $w=1.68e-07 $l=4.3e-07 $layer=LI1_cond $X=12.235 $Y=0.625
+ $X2=12.235 $Y2=1.055
r45 4 13 39.2931 $w=2.55e-07 $l=1.79374e-07 $layer=POLY_cond $X=12.41 $Y=0.995
+ $X2=12.38 $Y2=1.16
r46 4 6 139.78 $w=1.5e-07 $l=4.35e-07 $layer=POLY_cond $X=12.41 $Y=0.995
+ $X2=12.41 $Y2=0.56
r47 1 13 51.486 $w=2.55e-07 $l=2.52488e-07 $layer=POLY_cond $X=12.385 $Y=1.41
+ $X2=12.38 $Y2=1.16
r48 1 3 153.972 $w=1.8e-07 $l=5.75e-07 $layer=POLY_cond $X=12.385 $Y=1.41
+ $X2=12.385 $Y2=1.985
.ends

.subckt PM_SKY130_FD_SC_HDLL__MUXB8TO1_1%D[6] 1 3 4 6 8 13 15
c37 8 0 1.78369e-19 $X=13.065 $Y=1.055
c38 4 0 2.31671e-19 $X=12.915 $Y=1.41
r39 15 18 2.25478 $w=2.28e-07 $l=4.5e-08 $layer=LI1_cond $X=13.11 $Y=0.51
+ $X2=13.065 $Y2=0.51
r40 10 13 6.18905 $w=2.68e-07 $l=1.45e-07 $layer=LI1_cond $X=12.92 $Y=1.19
+ $X2=13.065 $Y2=1.19
r41 10 11 145.28 $w=1.7e-07 $l=1.7e-07 $layer=licon1_POLY $count=1 $X=12.92
+ $Y=1.16 $X2=12.92 $Y2=1.16
r42 8 13 3.44395 $w=1.7e-07 $l=1.35e-07 $layer=LI1_cond $X=13.065 $Y=1.055
+ $X2=13.065 $Y2=1.19
r43 7 18 2.50919 $w=1.7e-07 $l=1.15e-07 $layer=LI1_cond $X=13.065 $Y=0.625
+ $X2=13.065 $Y2=0.51
r44 7 8 28.0535 $w=1.68e-07 $l=4.3e-07 $layer=LI1_cond $X=13.065 $Y=0.625
+ $X2=13.065 $Y2=1.055
r45 4 11 51.486 $w=2.55e-07 $l=2.52488e-07 $layer=POLY_cond $X=12.915 $Y=1.41
+ $X2=12.92 $Y2=1.16
r46 4 6 153.972 $w=1.8e-07 $l=5.75e-07 $layer=POLY_cond $X=12.915 $Y=1.41
+ $X2=12.915 $Y2=1.985
r47 1 11 39.2931 $w=2.55e-07 $l=1.79374e-07 $layer=POLY_cond $X=12.89 $Y=0.995
+ $X2=12.92 $Y2=1.16
r48 1 3 139.78 $w=1.5e-07 $l=4.35e-07 $layer=POLY_cond $X=12.89 $Y=0.995
+ $X2=12.89 $Y2=0.56
.ends

.subckt PM_SKY130_FD_SC_HDLL__MUXB8TO1_1%A_2668_265# 1 2 9 11 12 15 22 26
r56 20 22 9.67586 $w=2.9e-07 $l=3.23497e-07 $layer=LI1_cond $X=13.965 $Y=1.405
+ $X2=14.195 $Y2=1.63
r57 19 26 67.1279 $w=2.19e-07 $l=3.05e-07 $layer=POLY_cond $X=13.745 $Y=1.34
+ $X2=13.44 $Y2=1.34
r58 18 20 9.25517 $w=2.9e-07 $l=2.2e-07 $layer=LI1_cond $X=13.745 $Y=1.405
+ $X2=13.965 $Y2=1.405
r59 18 19 145.28 $w=1.7e-07 $l=1.7e-07 $layer=licon1_POLY $count=1 $X=13.745
+ $Y=1.34 $X2=13.745 $Y2=1.34
r60 15 22 23.5727 $w=3.28e-07 $l=6.75e-07 $layer=LI1_cond $X=14.195 $Y=2.31
+ $X2=14.195 $Y2=1.635
r61 12 20 3.86198 $w=1.7e-07 $l=2.3e-07 $layer=LI1_cond $X=13.965 $Y=1.175
+ $X2=13.965 $Y2=1.405
r62 11 25 8.93631 $w=3.14e-07 $l=3.19202e-07 $layer=LI1_cond $X=13.965 $Y=0.755
+ $X2=14.195 $Y2=0.542
r63 11 12 27.4011 $w=1.68e-07 $l=4.2e-07 $layer=LI1_cond $X=13.965 $Y=0.755
+ $X2=13.965 $Y2=1.175
r64 7 26 7.45852 $w=1.8e-07 $l=1.35e-07 $layer=POLY_cond $X=13.44 $Y=1.475
+ $X2=13.44 $Y2=1.34
r65 7 9 233.226 $w=1.8e-07 $l=6e-07 $layer=POLY_cond $X=13.44 $Y=1.475 $X2=13.44
+ $Y2=2.075
r66 2 22 400 $w=1.7e-07 $l=1.97864e-07 $layer=licon1_PDIFF $count=1 $X=14.07
+ $Y=1.485 $X2=14.195 $Y2=1.63
r67 2 15 400 $w=1.7e-07 $l=8.85297e-07 $layer=licon1_PDIFF $count=1 $X=14.07
+ $Y=1.485 $X2=14.195 $Y2=2.31
r68 1 25 182 $w=1.7e-07 $l=3.16386e-07 $layer=licon1_NDIFF $count=1 $X=14.07
+ $Y=0.235 $X2=14.195 $Y2=0.495
.ends

.subckt PM_SKY130_FD_SC_HDLL__MUXB8TO1_1%S[6] 1 3 4 5 6 8 9 11 12 17
r47 16 17 145.28 $w=1.7e-07 $l=1.7e-07 $layer=licon1_POLY $count=1 $X=14.395
+ $Y=1.03 $X2=14.395 $Y2=1.03
r48 14 16 24.8967 $w=2.42e-07 $l=1.25e-07 $layer=POLY_cond $X=14.395 $Y=0.905
+ $X2=14.395 $Y2=1.03
r49 12 17 4.60977 $w=3.98e-07 $l=1.6e-07 $layer=LI1_cond $X=14.425 $Y=1.19
+ $X2=14.425 $Y2=1.03
r50 9 14 21.8618 $w=2.42e-07 $l=9.08295e-08 $layer=POLY_cond $X=14.43 $Y=0.83
+ $X2=14.395 $Y2=0.905
r51 9 11 107.647 $w=1.5e-07 $l=3.35e-07 $layer=POLY_cond $X=14.43 $Y=0.83
+ $X2=14.43 $Y2=0.495
r52 6 16 78.9522 $w=2.42e-07 $l=3.97115e-07 $layer=POLY_cond $X=14.43 $Y=1.41
+ $X2=14.395 $Y2=1.03
r53 6 8 153.972 $w=1.8e-07 $l=5.75e-07 $layer=POLY_cond $X=14.43 $Y=1.41
+ $X2=14.43 $Y2=1.985
r54 4 14 13.9682 $w=1.5e-07 $l=1.35e-07 $layer=POLY_cond $X=14.26 $Y=0.905
+ $X2=14.395 $Y2=0.905
r55 4 5 420.468 $w=1.5e-07 $l=8.2e-07 $layer=POLY_cond $X=14.26 $Y=0.905
+ $X2=13.44 $Y2=0.905
r56 1 5 26.9307 $w=1.5e-07 $l=1.06066e-07 $layer=POLY_cond $X=13.365 $Y=0.83
+ $X2=13.44 $Y2=0.905
r57 1 3 107.647 $w=1.5e-07 $l=3.35e-07 $layer=POLY_cond $X=13.365 $Y=0.83
+ $X2=13.365 $Y2=0.495
.ends

.subckt PM_SKY130_FD_SC_HDLL__MUXB8TO1_1%S[7] 1 3 4 6 7 9 11 12 17
r44 16 17 145.28 $w=1.7e-07 $l=1.7e-07 $layer=licon1_POLY $count=1 $X=15.045
+ $Y=1.03 $X2=15.045 $Y2=1.03
r45 14 16 24.8967 $w=2.42e-07 $l=1.25e-07 $layer=POLY_cond $X=15.045 $Y=0.905
+ $X2=15.045 $Y2=1.03
r46 12 17 4.60977 $w=3.98e-07 $l=1.6e-07 $layer=LI1_cond $X=15.015 $Y=1.19
+ $X2=15.015 $Y2=1.03
r47 9 11 107.647 $w=1.5e-07 $l=3.35e-07 $layer=POLY_cond $X=16.075 $Y=0.83
+ $X2=16.075 $Y2=0.495
r48 8 14 13.9682 $w=1.5e-07 $l=1.35e-07 $layer=POLY_cond $X=15.18 $Y=0.905
+ $X2=15.045 $Y2=0.905
r49 7 9 26.9307 $w=1.5e-07 $l=1.06066e-07 $layer=POLY_cond $X=16 $Y=0.905
+ $X2=16.075 $Y2=0.83
r50 7 8 420.468 $w=1.5e-07 $l=8.2e-07 $layer=POLY_cond $X=16 $Y=0.905 $X2=15.18
+ $Y2=0.905
r51 4 14 21.8618 $w=2.42e-07 $l=9.08295e-08 $layer=POLY_cond $X=15.01 $Y=0.83
+ $X2=15.045 $Y2=0.905
r52 4 6 107.647 $w=1.5e-07 $l=3.35e-07 $layer=POLY_cond $X=15.01 $Y=0.83
+ $X2=15.01 $Y2=0.495
r53 1 16 78.9522 $w=2.42e-07 $l=3.97115e-07 $layer=POLY_cond $X=15.01 $Y=1.41
+ $X2=15.045 $Y2=1.03
r54 1 3 153.972 $w=1.8e-07 $l=5.75e-07 $layer=POLY_cond $X=15.01 $Y=1.41
+ $X2=15.01 $Y2=1.985
.ends

.subckt PM_SKY130_FD_SC_HDLL__MUXB8TO1_1%A_3017_47# 1 2 9 13 16 19 22 24
r55 22 27 67.1279 $w=2.19e-07 $l=3.05e-07 $layer=POLY_cond $X=15.695 $Y=1.34
+ $X2=16 $Y2=1.34
r56 21 22 145.28 $w=1.7e-07 $l=1.7e-07 $layer=licon1_POLY $count=1 $X=15.695
+ $Y=1.34 $X2=15.695 $Y2=1.34
r57 19 21 9.25517 $w=2.9e-07 $l=2.2e-07 $layer=LI1_cond $X=15.475 $Y=1.405
+ $X2=15.695 $Y2=1.405
r58 18 19 9.67586 $w=2.9e-07 $l=3.23497e-07 $layer=LI1_cond $X=15.245 $Y=1.63
+ $X2=15.475 $Y2=1.405
r59 16 19 3.86198 $w=1.7e-07 $l=2.3e-07 $layer=LI1_cond $X=15.475 $Y=1.175
+ $X2=15.475 $Y2=1.405
r60 15 24 8.93631 $w=3.14e-07 $l=3.19202e-07 $layer=LI1_cond $X=15.475 $Y=0.755
+ $X2=15.245 $Y2=0.542
r61 15 16 27.4011 $w=1.68e-07 $l=4.2e-07 $layer=LI1_cond $X=15.475 $Y=0.755
+ $X2=15.475 $Y2=1.175
r62 13 18 23.5727 $w=3.28e-07 $l=6.75e-07 $layer=LI1_cond $X=15.245 $Y=2.31
+ $X2=15.245 $Y2=1.635
r63 7 27 7.45852 $w=1.8e-07 $l=1.35e-07 $layer=POLY_cond $X=16 $Y=1.475 $X2=16
+ $Y2=1.34
r64 7 9 233.226 $w=1.8e-07 $l=6e-07 $layer=POLY_cond $X=16 $Y=1.475 $X2=16
+ $Y2=2.075
r65 2 18 400 $w=1.7e-07 $l=2.05061e-07 $layer=licon1_PDIFF $count=1 $X=15.1
+ $Y=1.485 $X2=15.245 $Y2=1.63
r66 2 13 400 $w=1.7e-07 $l=8.94567e-07 $layer=licon1_PDIFF $count=1 $X=15.1
+ $Y=1.485 $X2=15.245 $Y2=2.31
r67 1 24 182 $w=1.7e-07 $l=3.30454e-07 $layer=licon1_NDIFF $count=1 $X=15.085
+ $Y=0.235 $X2=15.245 $Y2=0.495
.ends

.subckt PM_SKY130_FD_SC_HDLL__MUXB8TO1_1%D[7] 1 3 4 6 8 12 15 21
c28 1 0 5.33021e-20 $X=16.525 $Y=1.41
r29 15 21 2.25478 $w=2.28e-07 $l=4.5e-08 $layer=LI1_cond $X=16.33 $Y=0.51
+ $X2=16.375 $Y2=0.51
r30 12 13 145.28 $w=1.7e-07 $l=1.7e-07 $layer=licon1_POLY $count=1 $X=16.52
+ $Y=1.16 $X2=16.52 $Y2=1.16
r31 9 12 6.18905 $w=2.68e-07 $l=1.45e-07 $layer=LI1_cond $X=16.375 $Y=1.19
+ $X2=16.52 $Y2=1.19
r32 8 9 3.44395 $w=1.7e-07 $l=1.35e-07 $layer=LI1_cond $X=16.375 $Y=1.055
+ $X2=16.375 $Y2=1.19
r33 7 21 2.50919 $w=1.7e-07 $l=1.15e-07 $layer=LI1_cond $X=16.375 $Y=0.625
+ $X2=16.375 $Y2=0.51
r34 7 8 28.0535 $w=1.68e-07 $l=4.3e-07 $layer=LI1_cond $X=16.375 $Y=0.625
+ $X2=16.375 $Y2=1.055
r35 4 13 39.2931 $w=2.55e-07 $l=1.79374e-07 $layer=POLY_cond $X=16.55 $Y=0.995
+ $X2=16.52 $Y2=1.16
r36 4 6 139.78 $w=1.5e-07 $l=4.35e-07 $layer=POLY_cond $X=16.55 $Y=0.995
+ $X2=16.55 $Y2=0.56
r37 1 13 51.486 $w=2.55e-07 $l=2.52488e-07 $layer=POLY_cond $X=16.525 $Y=1.41
+ $X2=16.52 $Y2=1.16
r38 1 3 153.972 $w=1.8e-07 $l=5.75e-07 $layer=POLY_cond $X=16.525 $Y=1.41
+ $X2=16.525 $Y2=1.985
.ends

.subckt PM_SKY130_FD_SC_HDLL__MUXB8TO1_1%VPWR 1 2 3 4 5 6 7 8 9 28 30 36 42 48
+ 54 60 66 72 76 78 83 84 86 87 89 90 92 93 94 95 96 97 98 111 125 139 153 164
+ 167 170
r265 158 159 4.65 $w=1.7e-07 $l=3.4e-07 $layer=mcon $count=2 $X=16.33 $Y=2.72
+ $X2=16.33 $Y2=2.72
r266 156 159 0.392668 $w=4.8e-07 $l=1.38e-06 $layer=MET1_cond $X=14.95 $Y=2.72
+ $X2=16.33 $Y2=2.72
r267 155 158 90.0321 $w=1.68e-07 $l=1.38e-06 $layer=LI1_cond $X=14.95 $Y=2.72
+ $X2=16.33 $Y2=2.72
r268 155 156 4.65 $w=1.7e-07 $l=3.4e-07 $layer=mcon $count=2 $X=14.95 $Y=2.72
+ $X2=14.95 $Y2=2.72
r269 153 173 4.78613 $w=1.7e-07 $l=2.12e-07 $layer=LI1_cond $X=16.595 $Y=2.72
+ $X2=16.807 $Y2=2.72
r270 153 158 17.2888 $w=1.68e-07 $l=2.65e-07 $layer=LI1_cond $X=16.595 $Y=2.72
+ $X2=16.33 $Y2=2.72