* File: sky130_fd_sc_hdll__muxb8to1_2.pex.spice
* Created: Wed Sep  2 08:36:07 2020
* Program "Calibre xRC"
* Version "v2018.4_34.26"
* Nominal Temperature: 27C
* Circuit Temperature: 27C
* 
.subckt PM_SKY130_FD_SC_HDLL__MUXB8TO1_2%D[0] 3 7 11 15 17 27 29
r47 28 29 5.55434 $w=2.7e-07 $l=2.5e-08 $layer=POLY_cond $X=0.94 $Y=1.16
+ $X2=0.965 $Y2=1.16
r48 26 28 42.213 $w=2.7e-07 $l=1.9e-07 $layer=POLY_cond $X=0.75 $Y=1.16 $X2=0.94
+ $Y2=1.16
r49 26 27 145.28 $w=1.7e-07 $l=1.7e-07 $layer=licon1_POLY $count=1 $X=0.75
+ $Y=1.16 $X2=0.75 $Y2=1.16
r50 24 26 51.1 $w=2.7e-07 $l=2.3e-07 $layer=POLY_cond $X=0.52 $Y=1.16 $X2=0.75
+ $Y2=1.16
r51 23 24 5.55434 $w=2.7e-07 $l=2.5e-08 $layer=POLY_cond $X=0.495 $Y=1.16
+ $X2=0.52 $Y2=1.16
r52 21 27 14.5122 $w=2.68e-07 $l=3.4e-07 $layer=LI1_cond $X=0.41 $Y=1.19
+ $X2=0.75 $Y2=1.19
r53 20 23 18.8848 $w=2.7e-07 $l=8.5e-08 $layer=POLY_cond $X=0.41 $Y=1.16
+ $X2=0.495 $Y2=1.16
r54 20 21 145.28 $w=1.7e-07 $l=1.7e-07 $layer=licon1_POLY $count=1 $X=0.41
+ $Y=1.16 $X2=0.41 $Y2=1.16
r55 17 21 7.68295 $w=2.68e-07 $l=1.8e-07 $layer=LI1_cond $X=0.23 $Y=1.19
+ $X2=0.41 $Y2=1.19
r56 13 29 12.2893 $w=1.8e-07 $l=1.35e-07 $layer=POLY_cond $X=0.965 $Y=1.295
+ $X2=0.965 $Y2=1.16
r57 13 15 268.21 $w=1.8e-07 $l=6.9e-07 $layer=POLY_cond $X=0.965 $Y=1.295
+ $X2=0.965 $Y2=1.985
r58 9 28 16.5046 $w=1.5e-07 $l=1.35e-07 $layer=POLY_cond $X=0.94 $Y=1.025
+ $X2=0.94 $Y2=1.16
r59 9 11 238.436 $w=1.5e-07 $l=4.65e-07 $layer=POLY_cond $X=0.94 $Y=1.025
+ $X2=0.94 $Y2=0.56
r60 5 24 16.5046 $w=1.5e-07 $l=1.35e-07 $layer=POLY_cond $X=0.52 $Y=1.025
+ $X2=0.52 $Y2=1.16
r61 5 7 238.436 $w=1.5e-07 $l=4.65e-07 $layer=POLY_cond $X=0.52 $Y=1.025
+ $X2=0.52 $Y2=0.56
r62 1 23 12.2893 $w=1.8e-07 $l=1.35e-07 $layer=POLY_cond $X=0.495 $Y=1.295
+ $X2=0.495 $Y2=1.16
r63 1 3 268.21 $w=1.8e-07 $l=6.9e-07 $layer=POLY_cond $X=0.495 $Y=1.295
+ $X2=0.495 $Y2=1.985
.ends

.subckt PM_SKY130_FD_SC_HDLL__MUXB8TO1_2%A_278_265# 1 2 9 11 12 15 17 18 21 28
+ 32
c77 9 0 1.30521e-19 $X=1.49 $Y=2.075
r78 26 28 13.4767 $w=2.58e-07 $l=3.756e-07 $layer=LI1_cond $X=2.43 $Y=1.42
+ $X2=2.715 $Y2=1.63
r79 25 32 66.8227 $w=2.2e-07 $l=3.05e-07 $layer=POLY_cond $X=2.265 $Y=1.34
+ $X2=1.96 $Y2=1.34
r80 24 26 7.80233 $w=2.58e-07 $l=1.65e-07 $layer=LI1_cond $X=2.265 $Y=1.42
+ $X2=2.43 $Y2=1.42
r81 24 25 145.28 $w=1.7e-07 $l=1.7e-07 $layer=licon1_POLY $count=1 $X=2.265
+ $Y=1.34 $X2=2.265 $Y2=1.34
r82 21 28 23.5727 $w=3.28e-07 $l=6.75e-07 $layer=LI1_cond $X=2.715 $Y=2.31
+ $X2=2.715 $Y2=1.635
r83 18 26 3.17874 $w=1.7e-07 $l=2.15e-07 $layer=LI1_cond $X=2.43 $Y=1.205
+ $X2=2.43 $Y2=1.42
r84 17 31 16.1792 $w=2.79e-07 $l=4.97152e-07 $layer=LI1_cond $X=2.43 $Y=0.755
+ $X2=2.8 $Y2=0.457
r85 17 18 29.3583 $w=1.68e-07 $l=4.5e-07 $layer=LI1_cond $X=2.43 $Y=0.755
+ $X2=2.43 $Y2=1.205
r86 13 32 7.56431 $w=1.8e-07 $l=1.35e-07 $layer=POLY_cond $X=1.96 $Y=1.475
+ $X2=1.96 $Y2=1.34
r87 13 15 233.226 $w=1.8e-07 $l=6e-07 $layer=POLY_cond $X=1.96 $Y=1.475 $X2=1.96
+ $Y2=2.075
r88 11 32 24.6297 $w=2.2e-07 $l=1.16189e-07 $layer=POLY_cond $X=1.87 $Y=1.4
+ $X2=1.96 $Y2=1.34
r89 11 12 148.702 $w=1.5e-07 $l=2.9e-07 $layer=POLY_cond $X=1.87 $Y=1.4 $X2=1.58
+ $Y2=1.4
r90 7 12 27.2212 $w=1.5e-07 $l=1.21861e-07 $layer=POLY_cond $X=1.49 $Y=1.475
+ $X2=1.58 $Y2=1.4
r91 7 9 233.226 $w=1.8e-07 $l=6e-07 $layer=POLY_cond $X=1.49 $Y=1.475 $X2=1.49
+ $Y2=2.075
r92 2 28 400 $w=1.7e-07 $l=1.97864e-07 $layer=licon1_PDIFF $count=1 $X=2.59
+ $Y=1.485 $X2=2.715 $Y2=1.63
r93 2 21 400 $w=1.7e-07 $l=8.85297e-07 $layer=licon1_PDIFF $count=1 $X=2.59
+ $Y=1.485 $X2=2.715 $Y2=2.31
r94 1 31 182 $w=1.7e-07 $l=3.16386e-07 $layer=licon1_NDIFF $count=1 $X=2.675
+ $Y=0.235 $X2=2.8 $Y2=0.495
.ends

.subckt PM_SKY130_FD_SC_HDLL__MUXB8TO1_2%S[0] 1 3 4 5 6 8 9 12 13 14 15 17 18 20
+ 21 22
r65 24 26 44.8372 $w=2.58e-07 $l=2.4e-07 $layer=POLY_cond $X=2.955 $Y=0.92
+ $X2=2.955 $Y2=1.16
r66 22 26 145.28 $w=1.7e-07 $l=1.7e-07 $layer=licon1_POLY $count=1 $X=2.955
+ $Y=1.16 $X2=2.955 $Y2=1.16
r67 18 24 22.3869 $w=2.58e-07 $l=9.87421e-08 $layer=POLY_cond $X=3.01 $Y=0.845
+ $X2=2.955 $Y2=0.92
r68 18 20 112.467 $w=1.5e-07 $l=3.5e-07 $layer=POLY_cond $X=3.01 $Y=0.845
+ $X2=3.01 $Y2=0.495
r69 15 26 51.1626 $w=2.58e-07 $l=2.52488e-07 $layer=POLY_cond $X=2.95 $Y=1.41
+ $X2=2.955 $Y2=1.16
r70 15 17 153.972 $w=1.8e-07 $l=5.75e-07 $layer=POLY_cond $X=2.95 $Y=1.41
+ $X2=2.95 $Y2=1.985
r71 13 24 15.449 $w=1.5e-07 $l=1.35e-07 $layer=POLY_cond $X=2.82 $Y=0.92
+ $X2=2.955 $Y2=0.92
r72 13 14 194.851 $w=1.5e-07 $l=3.8e-07 $layer=POLY_cond $X=2.82 $Y=0.92
+ $X2=2.44 $Y2=0.92
r73 12 14 26.9307 $w=1.5e-07 $l=1.06066e-07 $layer=POLY_cond $X=2.365 $Y=0.845
+ $X2=2.44 $Y2=0.92
r74 11 12 302.532 $w=1.5e-07 $l=5.9e-07 $layer=POLY_cond $X=2.365 $Y=0.255
+ $X2=2.365 $Y2=0.845
r75 10 21 20.4101 $w=1.5e-07 $l=7.5e-08 $layer=POLY_cond $X=1.955 $Y=0.18
+ $X2=1.88 $Y2=0.18
r76 9 11 26.9307 $w=1.5e-07 $l=1.06066e-07 $layer=POLY_cond $X=2.29 $Y=0.18
+ $X2=2.365 $Y2=0.255
r77 9 10 171.777 $w=1.5e-07 $l=3.35e-07 $layer=POLY_cond $X=2.29 $Y=0.18
+ $X2=1.955 $Y2=0.18
r78 6 21 5.30422 $w=1.5e-07 $l=7.5e-08 $layer=POLY_cond $X=1.88 $Y=0.255
+ $X2=1.88 $Y2=0.18
r79 6 8 112.467 $w=1.5e-07 $l=3.5e-07 $layer=POLY_cond $X=1.88 $Y=0.255 $X2=1.88
+ $Y2=0.605
r80 4 21 20.4101 $w=1.5e-07 $l=7.5e-08 $layer=POLY_cond $X=1.805 $Y=0.18
+ $X2=1.88 $Y2=0.18
r81 4 5 138.447 $w=1.5e-07 $l=2.7e-07 $layer=POLY_cond $X=1.805 $Y=0.18
+ $X2=1.535 $Y2=0.18
r82 1 5 26.9307 $w=1.5e-07 $l=1.06066e-07 $layer=POLY_cond $X=1.46 $Y=0.255
+ $X2=1.535 $Y2=0.18
r83 1 3 112.467 $w=1.5e-07 $l=3.5e-07 $layer=POLY_cond $X=1.46 $Y=0.255 $X2=1.46
+ $Y2=0.605
.ends

.subckt PM_SKY130_FD_SC_HDLL__MUXB8TO1_2%S[1] 1 3 4 6 7 10 11 12 13 15 16 18 20
+ 21 22
r62 24 26 44.8372 $w=2.58e-07 $l=2.4e-07 $layer=POLY_cond $X=3.485 $Y=0.92
+ $X2=3.485 $Y2=1.16
r63 22 26 145.28 $w=1.7e-07 $l=1.7e-07 $layer=licon1_POLY $count=1 $X=3.485
+ $Y=1.16 $X2=3.485 $Y2=1.16
r64 18 20 112.467 $w=1.5e-07 $l=3.5e-07 $layer=POLY_cond $X=4.98 $Y=0.255
+ $X2=4.98 $Y2=0.605
r65 17 21 20.4101 $w=1.5e-07 $l=7.5e-08 $layer=POLY_cond $X=4.635 $Y=0.18
+ $X2=4.56 $Y2=0.18
r66 16 18 26.9307 $w=1.5e-07 $l=1.06066e-07 $layer=POLY_cond $X=4.905 $Y=0.18
+ $X2=4.98 $Y2=0.255
r67 16 17 138.447 $w=1.5e-07 $l=2.7e-07 $layer=POLY_cond $X=4.905 $Y=0.18
+ $X2=4.635 $Y2=0.18
r68 13 21 5.30422 $w=1.5e-07 $l=7.5e-08 $layer=POLY_cond $X=4.56 $Y=0.255
+ $X2=4.56 $Y2=0.18
r69 13 15 112.467 $w=1.5e-07 $l=3.5e-07 $layer=POLY_cond $X=4.56 $Y=0.255
+ $X2=4.56 $Y2=0.605
r70 11 21 20.4101 $w=1.5e-07 $l=7.5e-08 $layer=POLY_cond $X=4.485 $Y=0.18
+ $X2=4.56 $Y2=0.18
r71 11 12 171.777 $w=1.5e-07 $l=3.35e-07 $layer=POLY_cond $X=4.485 $Y=0.18
+ $X2=4.15 $Y2=0.18
r72 9 12 26.9307 $w=1.5e-07 $l=1.06066e-07 $layer=POLY_cond $X=4.075 $Y=0.255
+ $X2=4.15 $Y2=0.18
r73 9 10 302.532 $w=1.5e-07 $l=5.9e-07 $layer=POLY_cond $X=4.075 $Y=0.255
+ $X2=4.075 $Y2=0.845
r74 8 24 15.449 $w=1.5e-07 $l=1.35e-07 $layer=POLY_cond $X=3.62 $Y=0.92
+ $X2=3.485 $Y2=0.92
r75 7 10 26.9307 $w=1.5e-07 $l=1.06066e-07 $layer=POLY_cond $X=4 $Y=0.92
+ $X2=4.075 $Y2=0.845
r76 7 8 194.851 $w=1.5e-07 $l=3.8e-07 $layer=POLY_cond $X=4 $Y=0.92 $X2=3.62
+ $Y2=0.92
r77 4 26 51.1626 $w=2.58e-07 $l=2.52488e-07 $layer=POLY_cond $X=3.49 $Y=1.41
+ $X2=3.485 $Y2=1.16
r78 4 6 153.972 $w=1.8e-07 $l=5.75e-07 $layer=POLY_cond $X=3.49 $Y=1.41 $X2=3.49
+ $Y2=1.985
r79 1 24 22.3869 $w=2.58e-07 $l=9.87421e-08 $layer=POLY_cond $X=3.43 $Y=0.845
+ $X2=3.485 $Y2=0.92
r80 1 3 112.467 $w=1.5e-07 $l=3.5e-07 $layer=POLY_cond $X=3.43 $Y=0.845 $X2=3.43
+ $Y2=0.495
.ends

.subckt PM_SKY130_FD_SC_HDLL__MUXB8TO1_2%A_701_47# 1 2 9 11 12 15 19 22 24 28
c74 15 0 1.69024e-19 $X=4.95 $Y=2.075
c75 11 0 1.93373e-19 $X=4.86 $Y=1.4
r76 31 33 66.8227 $w=2.2e-07 $l=3.05e-07 $layer=POLY_cond $X=4.175 $Y=1.34
+ $X2=4.48 $Y2=1.34
r77 30 31 145.28 $w=1.7e-07 $l=1.7e-07 $layer=licon1_POLY $count=1 $X=4.175
+ $Y=1.34 $X2=4.175 $Y2=1.34
r78 28 30 7.80233 $w=2.58e-07 $l=1.65e-07 $layer=LI1_cond $X=4.01 $Y=1.42
+ $X2=4.175 $Y2=1.42
r79 27 28 13.4767 $w=2.58e-07 $l=3.756e-07 $layer=LI1_cond $X=3.725 $Y=1.63
+ $X2=4.01 $Y2=1.42
r80 22 28 3.17874 $w=1.7e-07 $l=2.15e-07 $layer=LI1_cond $X=4.01 $Y=1.205
+ $X2=4.01 $Y2=1.42
r81 21 24 16.1792 $w=2.79e-07 $l=4.97152e-07 $layer=LI1_cond $X=4.01 $Y=0.755
+ $X2=3.64 $Y2=0.457
r82 21 22 29.3583 $w=1.68e-07 $l=4.5e-07 $layer=LI1_cond $X=4.01 $Y=0.755
+ $X2=4.01 $Y2=1.205
r83 19 27 23.5727 $w=3.28e-07 $l=6.75e-07 $layer=LI1_cond $X=3.725 $Y=2.31
+ $X2=3.725 $Y2=1.635
r84 13 15 233.226 $w=1.8e-07 $l=6e-07 $layer=POLY_cond $X=4.95 $Y=1.475 $X2=4.95
+ $Y2=2.075
r85 12 33 24.6297 $w=2.2e-07 $l=1.16189e-07 $layer=POLY_cond $X=4.57 $Y=1.4
+ $X2=4.48 $Y2=1.34
r86 11 13 27.2212 $w=1.5e-07 $l=1.21861e-07 $layer=POLY_cond $X=4.86 $Y=1.4
+ $X2=4.95 $Y2=1.475
r87 11 12 148.702 $w=1.5e-07 $l=2.9e-07 $layer=POLY_cond $X=4.86 $Y=1.4 $X2=4.57
+ $Y2=1.4
r88 7 33 7.56431 $w=1.8e-07 $l=1.35e-07 $layer=POLY_cond $X=4.48 $Y=1.475
+ $X2=4.48 $Y2=1.34
r89 7 9 233.226 $w=1.8e-07 $l=6e-07 $layer=POLY_cond $X=4.48 $Y=1.475 $X2=4.48
+ $Y2=2.075
r90 2 27 400 $w=1.7e-07 $l=2.05061e-07 $layer=licon1_PDIFF $count=1 $X=3.58
+ $Y=1.485 $X2=3.725 $Y2=1.63
r91 2 19 400 $w=1.7e-07 $l=8.94567e-07 $layer=licon1_PDIFF $count=1 $X=3.58
+ $Y=1.485 $X2=3.725 $Y2=2.31
r92 1 24 182 $w=1.7e-07 $l=3.20468e-07 $layer=licon1_NDIFF $count=1 $X=3.505
+ $Y=0.235 $X2=3.64 $Y2=0.495
.ends

.subckt PM_SKY130_FD_SC_HDLL__MUXB8TO1_2%D[1] 3 7 11 15 17 28
c53 17 0 1.17966e-19 $X=6.21 $Y=1.19
c54 15 0 1.17966e-19 $X=5.945 $Y=1.985
r55 28 29 145.28 $w=1.7e-07 $l=1.7e-07 $layer=licon1_POLY $count=1 $X=6.03
+ $Y=1.16 $X2=6.03 $Y2=1.16
r56 26 28 18.8848 $w=2.7e-07 $l=8.5e-08 $layer=POLY_cond $X=5.945 $Y=1.16
+ $X2=6.03 $Y2=1.16
r57 25 26 5.55434 $w=2.7e-07 $l=2.5e-08 $layer=POLY_cond $X=5.92 $Y=1.16
+ $X2=5.945 $Y2=1.16
r58 24 29 14.5122 $w=2.68e-07 $l=3.4e-07 $layer=LI1_cond $X=5.69 $Y=1.19
+ $X2=6.03 $Y2=1.19
r59 23 25 51.1 $w=2.7e-07 $l=2.3e-07 $layer=POLY_cond $X=5.69 $Y=1.16 $X2=5.92
+ $Y2=1.16
r60 23 24 145.28 $w=1.7e-07 $l=1.7e-07 $layer=licon1_POLY $count=1 $X=5.69
+ $Y=1.16 $X2=5.69 $Y2=1.16
r61 21 23 42.213 $w=2.7e-07 $l=1.9e-07 $layer=POLY_cond $X=5.5 $Y=1.16 $X2=5.69
+ $Y2=1.16
r62 19 21 5.55434 $w=2.7e-07 $l=2.5e-08 $layer=POLY_cond $X=5.475 $Y=1.16
+ $X2=5.5 $Y2=1.16
r63 17 29 7.68295 $w=2.68e-07 $l=1.8e-07 $layer=LI1_cond $X=6.21 $Y=1.19
+ $X2=6.03 $Y2=1.19
r64 13 26 12.2893 $w=1.8e-07 $l=1.35e-07 $layer=POLY_cond $X=5.945 $Y=1.295
+ $X2=5.945 $Y2=1.16
r65 13 15 268.21 $w=1.8e-07 $l=6.9e-07 $layer=POLY_cond $X=5.945 $Y=1.295
+ $X2=5.945 $Y2=1.985
r66 9 25 16.5046 $w=1.5e-07 $l=1.35e-07 $layer=POLY_cond $X=5.92 $Y=1.025
+ $X2=5.92 $Y2=1.16
r67 9 11 238.436 $w=1.5e-07 $l=4.65e-07 $layer=POLY_cond $X=5.92 $Y=1.025
+ $X2=5.92 $Y2=0.56
r68 5 21 16.5046 $w=1.5e-07 $l=1.35e-07 $layer=POLY_cond $X=5.5 $Y=1.025 $X2=5.5
+ $Y2=1.16
r69 5 7 238.436 $w=1.5e-07 $l=4.65e-07 $layer=POLY_cond $X=5.5 $Y=1.025 $X2=5.5
+ $Y2=0.56
r70 1 19 12.2893 $w=1.8e-07 $l=1.35e-07 $layer=POLY_cond $X=5.475 $Y=1.295
+ $X2=5.475 $Y2=1.16
r71 1 3 268.21 $w=1.8e-07 $l=6.9e-07 $layer=POLY_cond $X=5.475 $Y=1.295
+ $X2=5.475 $Y2=1.985
.ends

.subckt PM_SKY130_FD_SC_HDLL__MUXB8TO1_2%D[2] 3 7 11 15 17 27 29
c54 27 0 1.17966e-19 $X=7.19 $Y=1.16
c55 3 0 1.17966e-19 $X=6.935 $Y=1.985
r56 28 29 5.55434 $w=2.7e-07 $l=2.5e-08 $layer=POLY_cond $X=7.38 $Y=1.16
+ $X2=7.405 $Y2=1.16
r57 26 28 42.213 $w=2.7e-07 $l=1.9e-07 $layer=POLY_cond $X=7.19 $Y=1.16 $X2=7.38
+ $Y2=1.16
r58 26 27 145.28 $w=1.7e-07 $l=1.7e-07 $layer=licon1_POLY $count=1 $X=7.19
+ $Y=1.16 $X2=7.19 $Y2=1.16
r59 24 26 51.1 $w=2.7e-07 $l=2.3e-07 $layer=POLY_cond $X=6.96 $Y=1.16 $X2=7.19
+ $Y2=1.16
r60 23 24 5.55434 $w=2.7e-07 $l=2.5e-08 $layer=POLY_cond $X=6.935 $Y=1.16
+ $X2=6.96 $Y2=1.16
r61 21 27 14.5122 $w=2.68e-07 $l=3.4e-07 $layer=LI1_cond $X=6.85 $Y=1.19
+ $X2=7.19 $Y2=1.19
r62 20 23 18.8848 $w=2.7e-07 $l=8.5e-08 $layer=POLY_cond $X=6.85 $Y=1.16
+ $X2=6.935 $Y2=1.16
r63 20 21 145.28 $w=1.7e-07 $l=1.7e-07 $layer=licon1_POLY $count=1 $X=6.85
+ $Y=1.16 $X2=6.85 $Y2=1.16
r64 17 21 7.68295 $w=2.68e-07 $l=1.8e-07 $layer=LI1_cond $X=6.67 $Y=1.19
+ $X2=6.85 $Y2=1.19
r65 13 29 12.2893 $w=1.8e-07 $l=1.35e-07 $layer=POLY_cond $X=7.405 $Y=1.295
+ $X2=7.405 $Y2=1.16
r66 13 15 268.21 $w=1.8e-07 $l=6.9e-07 $layer=POLY_cond $X=7.405 $Y=1.295
+ $X2=7.405 $Y2=1.985
r67 9 28 16.5046 $w=1.5e-07 $l=1.35e-07 $layer=POLY_cond $X=7.38 $Y=1.025
+ $X2=7.38 $Y2=1.16
r68 9 11 238.436 $w=1.5e-07 $l=4.65e-07 $layer=POLY_cond $X=7.38 $Y=1.025
+ $X2=7.38 $Y2=0.56
r69 5 24 16.5046 $w=1.5e-07 $l=1.35e-07 $layer=POLY_cond $X=6.96 $Y=1.025
+ $X2=6.96 $Y2=1.16
r70 5 7 238.436 $w=1.5e-07 $l=4.65e-07 $layer=POLY_cond $X=6.96 $Y=1.025
+ $X2=6.96 $Y2=0.56
r71 1 23 12.2893 $w=1.8e-07 $l=1.35e-07 $layer=POLY_cond $X=6.935 $Y=1.295
+ $X2=6.935 $Y2=1.16
r72 1 3 268.21 $w=1.8e-07 $l=6.9e-07 $layer=POLY_cond $X=6.935 $Y=1.295
+ $X2=6.935 $Y2=1.985
.ends

.subckt PM_SKY130_FD_SC_HDLL__MUXB8TO1_2%A_1566_265# 1 2 9 11 12 15 17 18 21 28
+ 32
c78 12 0 1.93373e-19 $X=8.02 $Y=1.4
c79 9 0 1.69024e-19 $X=7.93 $Y=2.075
r80 26 28 13.4767 $w=2.58e-07 $l=3.756e-07 $layer=LI1_cond $X=8.87 $Y=1.42
+ $X2=9.155 $Y2=1.63
r81 25 32 66.8227 $w=2.2e-07 $l=3.05e-07 $layer=POLY_cond $X=8.705 $Y=1.34
+ $X2=8.4 $Y2=1.34
r82 24 26 7.80233 $w=2.58e-07 $l=1.65e-07 $layer=LI1_cond $X=8.705 $Y=1.42
+ $X2=8.87 $Y2=1.42
r83 24 25 145.28 $w=1.7e-07 $l=1.7e-07 $layer=licon1_POLY $count=1 $X=8.705
+ $Y=1.34 $X2=8.705 $Y2=1.34
r84 21 28 23.5727 $w=3.28e-07 $l=6.75e-07 $layer=LI1_cond $X=9.155 $Y=2.31
+ $X2=9.155 $Y2=1.635
r85 18 26 3.17874 $w=1.7e-07 $l=2.15e-07 $layer=LI1_cond $X=8.87 $Y=1.205
+ $X2=8.87 $Y2=1.42
r86 17 31 16.1792 $w=2.79e-07 $l=4.97152e-07 $layer=LI1_cond $X=8.87 $Y=0.755
+ $X2=9.24 $Y2=0.457
r87 17 18 29.3583 $w=1.68e-07 $l=4.5e-07 $layer=LI1_cond $X=8.87 $Y=0.755
+ $X2=8.87 $Y2=1.205
r88 13 32 7.56431 $w=1.8e-07 $l=1.35e-07 $layer=POLY_cond $X=8.4 $Y=1.475
+ $X2=8.4 $Y2=1.34
r89 13 15 233.226 $w=1.8e-07 $l=6e-07 $layer=POLY_cond $X=8.4 $Y=1.475 $X2=8.4
+ $Y2=2.075
r90 11 32 24.6297 $w=2.2e-07 $l=1.16189e-07 $layer=POLY_cond $X=8.31 $Y=1.4
+ $X2=8.4 $Y2=1.34
r91 11 12 148.702 $w=1.5e-07 $l=2.9e-07 $layer=POLY_cond $X=8.31 $Y=1.4 $X2=8.02
+ $Y2=1.4
r92 7 12 27.2212 $w=1.5e-07 $l=1.21861e-07 $layer=POLY_cond $X=7.93 $Y=1.475
+ $X2=8.02 $Y2=1.4
r93 7 9 233.226 $w=1.8e-07 $l=6e-07 $layer=POLY_cond $X=7.93 $Y=1.475 $X2=7.93
+ $Y2=2.075
r94 2 28 400 $w=1.7e-07 $l=1.97864e-07 $layer=licon1_PDIFF $count=1 $X=9.03
+ $Y=1.485 $X2=9.155 $Y2=1.63
r95 2 21 400 $w=1.7e-07 $l=8.85297e-07 $layer=licon1_PDIFF $count=1 $X=9.03
+ $Y=1.485 $X2=9.155 $Y2=2.31
r96 1 31 182 $w=1.7e-07 $l=3.16386e-07 $layer=licon1_NDIFF $count=1 $X=9.115
+ $Y=0.235 $X2=9.24 $Y2=0.495
.ends

.subckt PM_SKY130_FD_SC_HDLL__MUXB8TO1_2%S[2] 1 3 4 5 6 8 9 12 13 14 15 17 18 20
+ 21 22
r65 24 26 44.8372 $w=2.58e-07 $l=2.4e-07 $layer=POLY_cond $X=9.395 $Y=0.92
+ $X2=9.395 $Y2=1.16
r66 22 26 145.28 $w=1.7e-07 $l=1.7e-07 $layer=licon1_POLY $count=1 $X=9.395
+ $Y=1.16 $X2=9.395 $Y2=1.16
r67 18 24 22.3869 $w=2.58e-07 $l=9.87421e-08 $layer=POLY_cond $X=9.45 $Y=0.845
+ $X2=9.395 $Y2=0.92
r68 18 20 112.467 $w=1.5e-07 $l=3.5e-07 $layer=POLY_cond $X=9.45 $Y=0.845
+ $X2=9.45 $Y2=0.495
r69 15 26 51.1626 $w=2.58e-07 $l=2.52488e-07 $layer=POLY_cond $X=9.39 $Y=1.41
+ $X2=9.395 $Y2=1.16
r70 15 17 153.972 $w=1.8e-07 $l=5.75e-07 $layer=POLY_cond $X=9.39 $Y=1.41
+ $X2=9.39 $Y2=1.985
r71 13 24 15.449 $w=1.5e-07 $l=1.35e-07 $layer=POLY_cond $X=9.26 $Y=0.92
+ $X2=9.395 $Y2=0.92
r72 13 14 194.851 $w=1.5e-07 $l=3.8e-07 $layer=POLY_cond $X=9.26 $Y=0.92
+ $X2=8.88 $Y2=0.92
r73 12 14 26.9307 $w=1.5e-07 $l=1.06066e-07 $layer=POLY_cond $X=8.805 $Y=0.845
+ $X2=8.88 $Y2=0.92
r74 11 12 302.532 $w=1.5e-07 $l=5.9e-07 $layer=POLY_cond $X=8.805 $Y=0.255
+ $X2=8.805 $Y2=0.845
r75 10 21 20.4101 $w=1.5e-07 $l=7.5e-08 $layer=POLY_cond $X=8.395 $Y=0.18
+ $X2=8.32 $Y2=0.18
r76 9 11 26.9307 $w=1.5e-07 $l=1.06066e-07 $layer=POLY_cond $X=8.73 $Y=0.18
+ $X2=8.805 $Y2=0.255
r77 9 10 171.777 $w=1.5e-07 $l=3.35e-07 $layer=POLY_cond $X=8.73 $Y=0.18
+ $X2=8.395 $Y2=0.18
r78 6 21 5.30422 $w=1.5e-07 $l=7.5e-08 $layer=POLY_cond $X=8.32 $Y=0.255
+ $X2=8.32 $Y2=0.18
r79 6 8 112.467 $w=1.5e-07 $l=3.5e-07 $layer=POLY_cond $X=8.32 $Y=0.255 $X2=8.32
+ $Y2=0.605
r80 4 21 20.4101 $w=1.5e-07 $l=7.5e-08 $layer=POLY_cond $X=8.245 $Y=0.18
+ $X2=8.32 $Y2=0.18
r81 4 5 138.447 $w=1.5e-07 $l=2.7e-07 $layer=POLY_cond $X=8.245 $Y=0.18
+ $X2=7.975 $Y2=0.18
r82 1 5 26.9307 $w=1.5e-07 $l=1.06066e-07 $layer=POLY_cond $X=7.9 $Y=0.255
+ $X2=7.975 $Y2=0.18
r83 1 3 112.467 $w=1.5e-07 $l=3.5e-07 $layer=POLY_cond $X=7.9 $Y=0.255 $X2=7.9
+ $Y2=0.605
.ends

.subckt PM_SKY130_FD_SC_HDLL__MUXB8TO1_2%S[3] 1 3 4 6 7 10 11 12 13 15 16 18 20
+ 21 22
r62 24 26 44.8372 $w=2.58e-07 $l=2.4e-07 $layer=POLY_cond $X=9.925 $Y=0.92
+ $X2=9.925 $Y2=1.16
r63 22 26 145.28 $w=1.7e-07 $l=1.7e-07 $layer=licon1_POLY $count=1 $X=9.925
+ $Y=1.16 $X2=9.925 $Y2=1.16
r64 18 20 112.467 $w=1.5e-07 $l=3.5e-07 $layer=POLY_cond $X=11.42 $Y=0.255
+ $X2=11.42 $Y2=0.605
r65 17 21 20.4101 $w=1.5e-07 $l=7.5e-08 $layer=POLY_cond $X=11.075 $Y=0.18
+ $X2=11 $Y2=0.18
r66 16 18 26.9307 $w=1.5e-07 $l=1.06066e-07 $layer=POLY_cond $X=11.345 $Y=0.18
+ $X2=11.42 $Y2=0.255
r67 16 17 138.447 $w=1.5e-07 $l=2.7e-07 $layer=POLY_cond $X=11.345 $Y=0.18
+ $X2=11.075 $Y2=0.18
r68 13 21 5.30422 $w=1.5e-07 $l=7.5e-08 $layer=POLY_cond $X=11 $Y=0.255 $X2=11
+ $Y2=0.18
r69 13 15 112.467 $w=1.5e-07 $l=3.5e-07 $layer=POLY_cond $X=11 $Y=0.255 $X2=11
+ $Y2=0.605
r70 11 21 20.4101 $w=1.5e-07 $l=7.5e-08 $layer=POLY_cond $X=10.925 $Y=0.18
+ $X2=11 $Y2=0.18
r71 11 12 171.777 $w=1.5e-07 $l=3.35e-07 $layer=POLY_cond $X=10.925 $Y=0.18
+ $X2=10.59 $Y2=0.18
r72 9 12 26.9307 $w=1.5e-07 $l=1.06066e-07 $layer=POLY_cond $X=10.515 $Y=0.255
+ $X2=10.59 $Y2=0.18
r73 9 10 302.532 $w=1.5e-07 $l=5.9e-07 $layer=POLY_cond $X=10.515 $Y=0.255
+ $X2=10.515 $Y2=0.845
r74 8 24 15.449 $w=1.5e-07 $l=1.35e-07 $layer=POLY_cond $X=10.06 $Y=0.92
+ $X2=9.925 $Y2=0.92
r75 7 10 26.9307 $w=1.5e-07 $l=1.06066e-07 $layer=POLY_cond $X=10.44 $Y=0.92
+ $X2=10.515 $Y2=0.845
r76 7 8 194.851 $w=1.5e-07 $l=3.8e-07 $layer=POLY_cond $X=10.44 $Y=0.92
+ $X2=10.06 $Y2=0.92
r77 4 26 51.1626 $w=2.58e-07 $l=2.52488e-07 $layer=POLY_cond $X=9.93 $Y=1.41
+ $X2=9.925 $Y2=1.16
r78 4 6 153.972 $w=1.8e-07 $l=5.75e-07 $layer=POLY_cond $X=9.93 $Y=1.41 $X2=9.93
+ $Y2=1.985
r79 1 24 22.3869 $w=2.58e-07 $l=9.87421e-08 $layer=POLY_cond $X=9.87 $Y=0.845
+ $X2=9.925 $Y2=0.92
r80 1 3 112.467 $w=1.5e-07 $l=3.5e-07 $layer=POLY_cond $X=9.87 $Y=0.845 $X2=9.87
+ $Y2=0.495
.ends

.subckt PM_SKY130_FD_SC_HDLL__MUXB8TO1_2%A_1989_47# 1 2 9 11 12 15 19 22 24 28
c74 15 0 1.69024e-19 $X=11.39 $Y=2.075
c75 11 0 1.93373e-19 $X=11.3 $Y=1.4
r76 31 33 66.8227 $w=2.2e-07 $l=3.05e-07 $layer=POLY_cond $X=10.615 $Y=1.34
+ $X2=10.92 $Y2=1.34
r77 30 31 145.28 $w=1.7e-07 $l=1.7e-07 $layer=licon1_POLY $count=1 $X=10.615
+ $Y=1.34 $X2=10.615 $Y2=1.34
r78 28 30 7.80233 $w=2.58e-07 $l=1.65e-07 $layer=LI1_cond $X=10.45 $Y=1.42
+ $X2=10.615 $Y2=1.42
r79 27 28 13.4767 $w=2.58e-07 $l=3.756e-07 $layer=LI1_cond $X=10.165 $Y=1.63
+ $X2=10.45 $Y2=1.42
r80 22 28 3.17874 $w=1.7e-07 $l=2.15e-07 $layer=LI1_cond $X=10.45 $Y=1.205
+ $X2=10.45 $Y2=1.42
r81 21 24 16.1792 $w=2.79e-07 $l=4.97152e-07 $layer=LI1_cond $X=10.45 $Y=0.755
+ $X2=10.08 $Y2=0.457
r82 21 22 29.3583 $w=1.68e-07 $l=4.5e-07 $layer=LI1_cond $X=10.45 $Y=0.755
+ $X2=10.45 $Y2=1.205
r83 19 27 23.5727 $w=3.28e-07 $l=6.75e-07 $layer=LI1_cond $X=10.165 $Y=2.31
+ $X2=10.165 $Y2=1.635
r84 13 15 233.226 $w=1.8e-07 $l=6e-07 $layer=POLY_cond $X=11.39 $Y=1.475
+ $X2=11.39 $Y2=2.075
r85 12 33 24.6297 $w=2.2e-07 $l=1.16189e-07 $layer=POLY_cond $X=11.01 $Y=1.4
+ $X2=10.92 $Y2=1.34
r86 11 13 27.2212 $w=1.5e-07 $l=1.21861e-07 $layer=POLY_cond $X=11.3 $Y=1.4
+ $X2=11.39 $Y2=1.475
r87 11 12 148.702 $w=1.5e-07 $l=2.9e-07 $layer=POLY_cond $X=11.3 $Y=1.4
+ $X2=11.01 $Y2=1.4
r88 7 33 7.56431 $w=1.8e-07 $l=1.35e-07 $layer=POLY_cond $X=10.92 $Y=1.475
+ $X2=10.92 $Y2=1.34
r89 7 9 233.226 $w=1.8e-07 $l=6e-07 $layer=POLY_cond $X=10.92 $Y=1.475 $X2=10.92
+ $Y2=2.075
r90 2 27 400 $w=1.7e-07 $l=2.05061e-07 $layer=licon1_PDIFF $count=1 $X=10.02
+ $Y=1.485 $X2=10.165 $Y2=1.63
r91 2 19 400 $w=1.7e-07 $l=8.94567e-07 $layer=licon1_PDIFF $count=1 $X=10.02
+ $Y=1.485 $X2=10.165 $Y2=2.31
r92 1 24 182 $w=1.7e-07 $l=3.20468e-07 $layer=licon1_NDIFF $count=1 $X=9.945
+ $Y=0.235 $X2=10.08 $Y2=0.495
.ends

.subckt PM_SKY130_FD_SC_HDLL__MUXB8TO1_2%D[3] 3 7 11 15 17 28
c53 17 0 1.17966e-19 $X=12.65 $Y=1.19
c54 15 0 1.17966e-19 $X=12.385 $Y=1.985
r55 28 29 145.28 $w=1.7e-07 $l=1.7e-07 $layer=licon1_POLY $count=1 $X=12.47
+ $Y=1.16 $X2=12.47 $Y2=1.16
r56 26 28 18.8848 $w=2.7e-07 $l=8.5e-08 $layer=POLY_cond $X=12.385 $Y=1.16
+ $X2=12.47 $Y2=1.16
r57 25 26 5.55434 $w=2.7e-07 $l=2.5e-08 $layer=POLY_cond $X=12.36 $Y=1.16
+ $X2=12.385 $Y2=1.16
r58 24 29 14.5122 $w=2.68e-07 $l=3.4e-07 $layer=LI1_cond $X=12.13 $Y=1.19
+ $X2=12.47 $Y2=1.19
r59 23 25 51.1 $w=2.7e-07 $l=2.3e-07 $layer=POLY_cond $X=12.13 $Y=1.16 $X2=12.36
+ $Y2=1.16
r60 23 24 145.28 $w=1.7e-07 $l=1.7e-07 $layer=licon1_POLY $count=1 $X=12.13
+ $Y=1.16 $X2=12.13 $Y2=1.16
r61 21 23 42.213 $w=2.7e-07 $l=1.9e-07 $layer=POLY_cond $X=11.94 $Y=1.16
+ $X2=12.13 $Y2=1.16
r62 19 21 5.55434 $w=2.7e-07 $l=2.5e-08 $layer=POLY_cond $X=11.915 $Y=1.16
+ $X2=11.94 $Y2=1.16
r63 17 29 7.68295 $w=2.68e-07 $l=1.8e-07 $layer=LI1_cond $X=12.65 $Y=1.19
+ $X2=12.47 $Y2=1.19
r64 13 26 12.2893 $w=1.8e-07 $l=1.35e-07 $layer=POLY_cond $X=12.385 $Y=1.295
+ $X2=12.385 $Y2=1.16
r65 13 15 268.21 $w=1.8e-07 $l=6.9e-07 $layer=POLY_cond $X=12.385 $Y=1.295
+ $X2=12.385 $Y2=1.985
r66 9 25 16.5046 $w=1.5e-07 $l=1.35e-07 $layer=POLY_cond $X=12.36 $Y=1.025
+ $X2=12.36 $Y2=1.16
r67 9 11 238.436 $w=1.5e-07 $l=4.65e-07 $layer=POLY_cond $X=12.36 $Y=1.025
+ $X2=12.36 $Y2=0.56
r68 5 21 16.5046 $w=1.5e-07 $l=1.35e-07 $layer=POLY_cond $X=11.94 $Y=1.025
+ $X2=11.94 $Y2=1.16
r69 5 7 238.436 $w=1.5e-07 $l=4.65e-07 $layer=POLY_cond $X=11.94 $Y=1.025
+ $X2=11.94 $Y2=0.56
r70 1 19 12.2893 $w=1.8e-07 $l=1.35e-07 $layer=POLY_cond $X=11.915 $Y=1.295
+ $X2=11.915 $Y2=1.16
r71 1 3 268.21 $w=1.8e-07 $l=6.9e-07 $layer=POLY_cond $X=11.915 $Y=1.295
+ $X2=11.915 $Y2=1.985
.ends

.subckt PM_SKY130_FD_SC_HDLL__MUXB8TO1_2%D[4] 3 7 11 15 17 27 29
c54 27 0 1.17966e-19 $X=13.63 $Y=1.16
c55 3 0 1.17966e-19 $X=13.375 $Y=1.985
r56 28 29 5.55434 $w=2.7e-07 $l=2.5e-08 $layer=POLY_cond $X=13.82 $Y=1.16
+ $X2=13.845 $Y2=1.16
r57 26 28 42.213 $w=2.7e-07 $l=1.9e-07 $layer=POLY_cond $X=13.63 $Y=1.16
+ $X2=13.82 $Y2=1.16
r58 26 27 145.28 $w=1.7e-07 $l=1.7e-07 $layer=licon1_POLY $count=1 $X=13.63
+ $Y=1.16 $X2=13.63 $Y2=1.16
r59 24 26 51.1 $w=2.7e-07 $l=2.3e-07 $layer=POLY_cond $X=13.4 $Y=1.16 $X2=13.63
+ $Y2=1.16
r60 23 24 5.55434 $w=2.7e-07 $l=2.5e-08 $layer=POLY_cond $X=13.375 $Y=1.16
+ $X2=13.4 $Y2=1.16
r61 21 27 14.5122 $w=2.68e-07 $l=3.4e-07 $layer=LI1_cond $X=13.29 $Y=1.19
+ $X2=13.63 $Y2=1.19
r62 20 23 18.8848 $w=2.7e-07 $l=8.5e-08 $layer=POLY_cond $X=13.29 $Y=1.16
+ $X2=13.375 $Y2=1.16
r63 20 21 145.28 $w=1.7e-07 $l=1.7e-07 $layer=licon1_POLY $count=1 $X=13.29
+ $Y=1.16 $X2=13.29 $Y2=1.16
r64 17 21 7.68295 $w=2.68e-07 $l=1.8e-07 $layer=LI1_cond $X=13.11 $Y=1.19
+ $X2=13.29 $Y2=1.19
r65 13 29 12.2893 $w=1.8e-07 $l=1.35e-07 $layer=POLY_cond $X=13.845 $Y=1.295
+ $X2=13.845 $Y2=1.16
r66 13 15 268.21 $w=1.8e-07 $l=6.9e-07 $layer=POLY_cond $X=13.845 $Y=1.295
+ $X2=13.845 $Y2=1.985
r67 9 28 16.5046 $w=1.5e-07 $l=1.35e-07 $layer=POLY_cond $X=13.82 $Y=1.025
+ $X2=13.82 $Y2=1.16
r68 9 11 238.436 $w=1.5e-07 $l=4.65e-07 $layer=POLY_cond $X=13.82 $Y=1.025
+ $X2=13.82 $Y2=0.56
r69 5 24 16.5046 $w=1.5e-07 $l=1.35e-07 $layer=POLY_cond $X=13.4 $Y=1.025
+ $X2=13.4 $Y2=1.16
r70 5 7 238.436 $w=1.5e-07 $l=4.65e-07 $layer=POLY_cond $X=13.4 $Y=1.025
+ $X2=13.4 $Y2=0.56
r71 1 23 12.2893 $w=1.8e-07 $l=1.35e-07 $layer=POLY_cond $X=13.375 $Y=1.295
+ $X2=13.375 $Y2=1.16
r72 1 3 268.21 $w=1.8e-07 $l=6.9e-07 $layer=POLY_cond $X=13.375 $Y=1.295
+ $X2=13.375 $Y2=1.985
.ends

.subckt PM_SKY130_FD_SC_HDLL__MUXB8TO1_2%A_2854_265# 1 2 9 11 12 15 17 18 21 28
+ 32
c78 12 0 1.93373e-19 $X=14.46 $Y=1.4
c79 9 0 1.69024e-19 $X=14.37 $Y=2.075
r80 26 28 13.4767 $w=2.58e-07 $l=3.756e-07 $layer=LI1_cond $X=15.31 $Y=1.42
+ $X2=15.595 $Y2=1.63
r81 25 32 66.8227 $w=2.2e-07 $l=3.05e-07 $layer=POLY_cond $X=15.145 $Y=1.34
+ $X2=14.84 $Y2=1.34
r82 24 26 7.80233 $w=2.58e-07 $l=1.65e-07 $layer=LI1_cond $X=15.145 $Y=1.42
+ $X2=15.31 $Y2=1.42
r83 24 25 145.28 $w=1.7e-07 $l=1.7e-07 $layer=licon1_POLY $count=1 $X=15.145
+ $Y=1.34 $X2=15.145 $Y2=1.34
r84 21 28 23.5727 $w=3.28e-07 $l=6.75e-07 $layer=LI1_cond $X=15.595 $Y=2.31
+ $X2=15.595 $Y2=1.635
r85 18 26 3.17874 $w=1.7e-07 $l=2.15e-07 $layer=LI1_cond $X=15.31 $Y=1.205
+ $X2=15.31 $Y2=1.42
r86 17 31 16.1792 $w=2.79e-07 $l=4.97152e-07 $layer=LI1_cond $X=15.31 $Y=0.755
+ $X2=15.68 $Y2=0.457
r87 17 18 29.3583 $w=1.68e-07 $l=4.5e-07 $layer=LI1_cond $X=15.31 $Y=0.755
+ $X2=15.31 $Y2=1.205
r88 13 32 7.56431 $w=1.8e-07 $l=1.35e-07 $layer=POLY_cond $X=14.84 $Y=1.475
+ $X2=14.84 $Y2=1.34
r89 13 15 233.226 $w=1.8e-07 $l=6e-07 $layer=POLY_cond $X=14.84 $Y=1.475
+ $X2=14.84 $Y2=2.075
r90 11 32 24.6297 $w=2.2e-07 $l=1.16189e-07 $layer=POLY_cond $X=14.75 $Y=1.4
+ $X2=14.84 $Y2=1.34
r91 11 12 148.702 $w=1.5e-07 $l=2.9e-07 $layer=POLY_cond $X=14.75 $Y=1.4
+ $X2=14.46 $Y2=1.4
r92 7 12 27.2212 $w=1.5e-07 $l=1.21861e-07 $layer=POLY_cond $X=14.37 $Y=1.475
+ $X2=14.46 $Y2=1.4
r93 7 9 233.226 $w=1.8e-07 $l=6e-07 $layer=POLY_cond $X=14.37 $Y=1.475 $X2=14.37
+ $Y2=2.075
r94 2 28 400 $w=1.7e-07 $l=1.97864e-07 $layer=licon1_PDIFF $count=1 $X=15.47
+ $Y=1.485 $X2=15.595 $Y2=1.63
r95 2 21 400 $w=1.7e-07 $l=8.85297e-07 $layer=licon1_PDIFF $count=1 $X=15.47
+ $Y=1.485 $X2=15.595 $Y2=2.31
r96 1 31 182 $w=1.7e-07 $l=3.16386e-07 $layer=licon1_NDIFF $count=1 $X=15.555
+ $Y=0.235 $X2=15.68 $Y2=0.495
.ends

.subckt PM_SKY130_FD_SC_HDLL__MUXB8TO1_2%S[4] 1 3 4 5 6 8 9 12 13 14 15 17 18 20
+ 21 22
r65 24 26 44.8372 $w=2.58e-07 $l=2.4e-07 $layer=POLY_cond $X=15.835 $Y=0.92
+ $X2=15.835 $Y2=1.16
r66 22 26 145.28 $w=1.7e-07 $l=1.7e-07 $layer=licon1_POLY $count=1 $X=15.835
+ $Y=1.16 $X2=15.835 $Y2=1.16
r67 18 24 22.3869 $w=2.58e-07 $l=9.87421e-08 $layer=POLY_cond $X=15.89 $Y=0.845
+ $X2=15.835 $Y2=0.92
r68 18 20 112.467 $w=1.5e-07 $l=3.5e-07 $layer=POLY_cond $X=15.89 $Y=0.845
+ $X2=15.89 $Y2=0.495
r69 15 26 51.1626 $w=2.58e-07 $l=2.52488e-07 $layer=POLY_cond $X=15.83 $Y=1.41
+ $X2=15.835 $Y2=1.16
r70 15 17 153.972 $w=1.8e-07 $l=5.75e-07 $layer=POLY_cond $X=15.83 $Y=1.41
+ $X2=15.83 $Y2=1.985
r71 13 24 15.449 $w=1.5e-07 $l=1.35e-07 $layer=POLY_cond $X=15.7 $Y=0.92
+ $X2=15.835 $Y2=0.92
r72 13 14 194.851 $w=1.5e-07 $l=3.8e-07 $layer=POLY_cond $X=15.7 $Y=0.92
+ $X2=15.32 $Y2=0.92
r73 12 14 26.9307 $w=1.5e-07 $l=1.06066e-07 $layer=POLY_cond $X=15.245 $Y=0.845
+ $X2=15.32 $Y2=0.92
r74 11 12 302.532 $w=1.5e-07 $l=5.9e-07 $layer=POLY_cond $X=15.245 $Y=0.255
+ $X2=15.245 $Y2=0.845
r75 10 21 20.4101 $w=1.5e-07 $l=7.5e-08 $layer=POLY_cond $X=14.835 $Y=0.18
+ $X2=14.76 $Y2=0.18
r76 9 11 26.9307 $w=1.5e-07 $l=1.06066e-07 $layer=POLY_cond $X=15.17 $Y=0.18
+ $X2=15.245 $Y2=0.255
r77 9 10 171.777 $w=1.5e-07 $l=3.35e-07 $layer=POLY_cond $X=15.17 $Y=0.18
+ $X2=14.835 $Y2=0.18
r78 6 21 5.30422 $w=1.5e-07 $l=7.5e-08 $layer=POLY_cond $X=14.76 $Y=0.255
+ $X2=14.76 $Y2=0.18
r79 6 8 112.467 $w=1.5e-07 $l=3.5e-07 $layer=POLY_cond $X=14.76 $Y=0.255
+ $X2=14.76 $Y2=0.605
r80 4 21 20.4101 $w=1.5e-07 $l=7.5e-08 $layer=POLY_cond $X=14.685 $Y=0.18
+ $X2=14.76 $Y2=0.18
r81 4 5 138.447 $w=1.5e-07 $l=2.7e-07 $layer=POLY_cond $X=14.685 $Y=0.18
+ $X2=14.415 $Y2=0.18
r82 1 5 26.9307 $w=1.5e-07 $l=1.06066e-07 $layer=POLY_cond $X=14.34 $Y=0.255
+ $X2=14.415 $Y2=0.18
r83 1 3 112.467 $w=1.5e-07 $l=3.5e-07 $layer=POLY_cond $X=14.34 $Y=0.255
+ $X2=14.34 $Y2=0.605
.ends

.subckt PM_SKY130_FD_SC_HDLL__MUXB8TO1_2%S[5] 1 3 4 6 7 10 11 12 13 15 16 18 20
+ 21 22
r62 24 26 44.8372 $w=2.58e-07 $l=2.4e-07 $layer=POLY_cond $X=16.365 $Y=0.92
+ $X2=16.365 $Y2=1.16
r63 22 26 145.28 $w=1.7e-07 $l=1.7e-07 $layer=licon1_POLY $count=1 $X=16.365
+ $Y=1.16 $X2=16.365 $Y2=1.16
r64 18 20 112.467 $w=1.5e-07 $l=3.5e-07 $layer=POLY_cond $X=17.86 $Y=0.255
+ $X2=17.86 $Y2=0.605
r65 17 21 20.4101 $w=1.5e-07 $l=7.5e-08 $layer=POLY_cond $X=17.515 $Y=0.18
+ $X2=17.44 $Y2=0.18
r66 16 18 26.9307 $w=1.5e-07 $l=1.06066e-07 $layer=POLY_cond $X=17.785 $Y=0.18
+ $X2=17.86 $Y2=0.255
r67 16 17 138.447 $w=1.5e-07 $l=2.7e-07 $layer=POLY_cond $X=17.785 $Y=0.18
+ $X2=17.515 $Y2=0.18
r68 13 21 5.30422 $w=1.5e-07 $l=7.5e-08 $layer=POLY_cond $X=17.44 $Y=0.255
+ $X2=17.44 $Y2=0.18
r69 13 15 112.467 $w=1.5e-07 $l=3.5e-07 $layer=POLY_cond $X=17.44 $Y=0.255
+ $X2=17.44 $Y2=0.605
r70 11 21 20.4101 $w=1.5e-07 $l=7.5e-08 $layer=POLY_cond $X=17.365 $Y=0.18
+ $X2=17.44 $Y2=0.18
r71 11 12 171.777 $w=1.5e-07 $l=3.35e-07 $layer=POLY_cond $X=17.365 $Y=0.18
+ $X2=17.03 $Y2=0.18
r72 9 12 26.9307 $w=1.5e-07 $l=1.06066e-07 $layer=POLY_cond $X=16.955 $Y=0.255
+ $X2=17.03 $Y2=0.18
r73 9 10 302.532 $w=1.5e-07 $l=5.9e-07 $layer=POLY_cond $X=16.955 $Y=0.255
+ $X2=16.955 $Y2=0.845
r74 8 24 15.449 $w=1.5e-07 $l=1.35e-07 $layer=POLY_cond $X=16.5 $Y=0.92
+ $X2=16.365 $Y2=0.92
r75 7 10 26.9307 $w=1.5e-07 $l=1.06066e-07 $layer=POLY_cond $X=16.88 $Y=0.92
+ $X2=16.955 $Y2=0.845
r76 7 8 194.851 $w=1.5e-07 $l=3.8e-07 $layer=POLY_cond $X=16.88 $Y=0.92 $X2=16.5
+ $Y2=0.92
r77 4 26 51.1626 $w=2.58e-07 $l=2.52488e-07 $layer=POLY_cond $X=16.37 $Y=1.41
+ $X2=16.365 $Y2=1.16
r78 4 6 153.972 $w=1.8e-07 $l=5.75e-07 $layer=POLY_cond $X=16.37 $Y=1.41
+ $X2=16.37 $Y2=1.985
r79 1 24 22.3869 $w=2.58e-07 $l=9.87421e-08 $layer=POLY_cond $X=16.31 $Y=0.845
+ $X2=16.365 $Y2=0.92
r80 1 3 112.467 $w=1.5e-07 $l=3.5e-07 $layer=POLY_cond $X=16.31 $Y=0.845
+ $X2=16.31 $Y2=0.495
.ends

.subckt PM_SKY130_FD_SC_HDLL__MUXB8TO1_2%A_3277_47# 1 2 9 11 12 15 19 22 24 28
c74 15 0 1.69024e-19 $X=17.83 $Y=2.075
c75 11 0 1.93373e-19 $X=17.74 $Y=1.4
r76 31 33 66.8227 $w=2.2e-07 $l=3.05e-07 $layer=POLY_cond $X=17.055 $Y=1.34
+ $X2=17.36 $Y2=1.34
r77 30 31 145.28 $w=1.7e-07 $l=1.7e-07 $layer=licon1_POLY $count=1 $X=17.055