* File: sky130_fd_sc_hdll__muxb8to1_4.pex.spice
* Created: Wed Sep  2 08:36:14 2020
* Program "Calibre xRC"
* Version "v2018.4_34.26"
* Nominal Temperature: 27C
* Circuit Temperature: 27C
* 
.subckt PM_SKY130_FD_SC_HDLL__MUXB8TO1_4%S[0] 1 3 5 6 8 9 11 13 15 16 18 19 22
+ 23 24 25 27 28 30 32 33 35 37 38 40 42 43 44 45 46 47 52
c112 30 0 1.3204e-19 $X=2.78 $Y=0.255
r113 47 52 12.2229 $w=3.28e-07 $l=3.5e-07 $layer=LI1_cond $X=0.23 $Y=1.16
+ $X2=0.58 $Y2=1.16
r114 40 42 107.647 $w=1.5e-07 $l=3.35e-07 $layer=POLY_cond $X=3.62 $Y=0.255
+ $X2=3.62 $Y2=0.59
r115 39 46 20.4101 $w=1.5e-07 $l=7.5e-08 $layer=POLY_cond $X=3.275 $Y=0.18
+ $X2=3.2 $Y2=0.18
r116 38 40 26.9307 $w=1.5e-07 $l=1.06066e-07 $layer=POLY_cond $X=3.545 $Y=0.18
+ $X2=3.62 $Y2=0.255
r117 38 39 138.447 $w=1.5e-07 $l=2.7e-07 $layer=POLY_cond $X=3.545 $Y=0.18
+ $X2=3.275 $Y2=0.18
r118 35 46 5.30422 $w=1.5e-07 $l=7.5e-08 $layer=POLY_cond $X=3.2 $Y=0.255
+ $X2=3.2 $Y2=0.18
r119 35 37 107.647 $w=1.5e-07 $l=3.35e-07 $layer=POLY_cond $X=3.2 $Y=0.255
+ $X2=3.2 $Y2=0.59
r120 34 45 20.4101 $w=1.5e-07 $l=7.5e-08 $layer=POLY_cond $X=2.855 $Y=0.18
+ $X2=2.78 $Y2=0.18
r121 33 46 20.4101 $w=1.5e-07 $l=7.5e-08 $layer=POLY_cond $X=3.125 $Y=0.18
+ $X2=3.2 $Y2=0.18
r122 33 34 138.447 $w=1.5e-07 $l=2.7e-07 $layer=POLY_cond $X=3.125 $Y=0.18
+ $X2=2.855 $Y2=0.18
r123 30 45 5.30422 $w=1.5e-07 $l=7.5e-08 $layer=POLY_cond $X=2.78 $Y=0.255
+ $X2=2.78 $Y2=0.18
r124 30 32 107.647 $w=1.5e-07 $l=3.35e-07 $layer=POLY_cond $X=2.78 $Y=0.255
+ $X2=2.78 $Y2=0.59
r125 29 44 20.4101 $w=1.5e-07 $l=7.5e-08 $layer=POLY_cond $X=2.435 $Y=0.18
+ $X2=2.36 $Y2=0.18
r126 28 45 20.4101 $w=1.5e-07 $l=7.5e-08 $layer=POLY_cond $X=2.705 $Y=0.18
+ $X2=2.78 $Y2=0.18
r127 28 29 138.447 $w=1.5e-07 $l=2.7e-07 $layer=POLY_cond $X=2.705 $Y=0.18
+ $X2=2.435 $Y2=0.18
r128 25 44 5.30422 $w=1.5e-07 $l=7.5e-08 $layer=POLY_cond $X=2.36 $Y=0.255
+ $X2=2.36 $Y2=0.18
r129 25 27 107.647 $w=1.5e-07 $l=3.35e-07 $layer=POLY_cond $X=2.36 $Y=0.255
+ $X2=2.36 $Y2=0.59
r130 23 44 20.4101 $w=1.5e-07 $l=7.5e-08 $layer=POLY_cond $X=2.285 $Y=0.18
+ $X2=2.36 $Y2=0.18
r131 23 24 312.787 $w=1.5e-07 $l=6.1e-07 $layer=POLY_cond $X=2.285 $Y=0.18
+ $X2=1.675 $Y2=0.18
r132 21 24 26.9307 $w=1.5e-07 $l=1.06066e-07 $layer=POLY_cond $X=1.6 $Y=0.255
+ $X2=1.675 $Y2=0.18
r133 21 22 246.128 $w=1.5e-07 $l=4.8e-07 $layer=POLY_cond $X=1.6 $Y=0.255
+ $X2=1.6 $Y2=0.735
r134 20 43 13.9575 $w=1.5e-07 $l=1e-07 $layer=POLY_cond $X=1.19 $Y=0.81 $X2=1.09
+ $Y2=0.81
r135 19 22 26.9307 $w=1.5e-07 $l=1.06066e-07 $layer=POLY_cond $X=1.525 $Y=0.81
+ $X2=1.6 $Y2=0.735
r136 19 20 171.777 $w=1.5e-07 $l=3.35e-07 $layer=POLY_cond $X=1.525 $Y=0.81
+ $X2=1.19 $Y2=0.81
r137 16 18 129.872 $w=1.8e-07 $l=4.85e-07 $layer=POLY_cond $X=1.09 $Y=1.55
+ $X2=1.09 $Y2=2.035
r138 15 16 33.5616 $w=2e-07 $l=1e-07 $layer=POLY_cond $X=1.09 $Y=1.45 $X2=1.09
+ $Y2=1.55
r139 14 43 10.2464 $w=2e-07 $l=7.5e-08 $layer=POLY_cond $X=1.09 $Y=0.885
+ $X2=1.09 $Y2=0.81
r140 14 15 187.341 $w=2e-07 $l=5.65e-07 $layer=POLY_cond $X=1.09 $Y=0.885
+ $X2=1.09 $Y2=1.45
r141 11 43 10.2464 $w=1.5e-07 $l=8.66025e-08 $layer=POLY_cond $X=1.065 $Y=0.735
+ $X2=1.09 $Y2=0.81
r142 11 13 93.1867 $w=1.5e-07 $l=2.9e-07 $layer=POLY_cond $X=1.065 $Y=0.735
+ $X2=1.065 $Y2=0.445
r143 10 49 7.64856 $w=1.5e-07 $l=1e-07 $layer=POLY_cond $X=0.72 $Y=0.81 $X2=0.62
+ $Y2=0.81
r144 9 43 13.9575 $w=1.5e-07 $l=1e-07 $layer=POLY_cond $X=0.99 $Y=0.81 $X2=1.09
+ $Y2=0.81
r145 9 10 138.447 $w=1.5e-07 $l=2.7e-07 $layer=POLY_cond $X=0.99 $Y=0.81
+ $X2=0.72 $Y2=0.81
r146 6 49 21.4346 $w=1.84e-07 $l=8.66025e-08 $layer=POLY_cond $X=0.645 $Y=0.735
+ $X2=0.62 $Y2=0.81
r147 6 8 93.1867 $w=1.5e-07 $l=2.9e-07 $layer=POLY_cond $X=0.645 $Y=0.735
+ $X2=0.645 $Y2=0.445
r148 3 5 129.872 $w=1.8e-07 $l=4.85e-07 $layer=POLY_cond $X=0.62 $Y=1.55
+ $X2=0.62 $Y2=2.035
r149 1 3 102.163 $w=1.84e-07 $l=3.9e-07 $layer=POLY_cond $X=0.62 $Y=1.16
+ $X2=0.62 $Y2=1.55
r150 1 52 72.64 $w=1.7e-07 $l=3.4e-07 $layer=licon1_POLY $count=2 $X=0.58
+ $Y=1.16 $X2=0.58 $Y2=1.16
r151 1 49 91.6848 $w=1.84e-07 $l=3.5e-07 $layer=POLY_cond $X=0.62 $Y=1.16
+ $X2=0.62 $Y2=0.81
.ends

.subckt PM_SKY130_FD_SC_HDLL__MUXB8TO1_4%S[1] 1 3 5 6 8 9 11 12 13 15 16 18 19
+ 22 23 24 25 27 28 30 32 33 35 37 38 40 42 43 44 45 46 47 51
c118 30 0 1.3204e-19 $X=2.78 $Y=5.185
r119 47 51 12.2229 $w=3.28e-07 $l=3.5e-07 $layer=LI1_cond $X=0.23 $Y=4.28
+ $X2=0.58 $Y2=4.28
r120 40 42 107.647 $w=1.5e-07 $l=3.35e-07 $layer=POLY_cond $X=3.62 $Y=5.185
+ $X2=3.62 $Y2=4.85
r121 39 46 20.4101 $w=1.5e-07 $l=7.5e-08 $layer=POLY_cond $X=3.275 $Y=5.26
+ $X2=3.2 $Y2=5.26
r122 38 40 26.9307 $w=1.5e-07 $l=1.06066e-07 $layer=POLY_cond $X=3.545 $Y=5.26
+ $X2=3.62 $Y2=5.185
r123 38 39 138.447 $w=1.5e-07 $l=2.7e-07 $layer=POLY_cond $X=3.545 $Y=5.26
+ $X2=3.275 $Y2=5.26
r124 35 46 5.30422 $w=1.5e-07 $l=7.5e-08 $layer=POLY_cond $X=3.2 $Y=5.185
+ $X2=3.2 $Y2=5.26
r125 35 37 107.647 $w=1.5e-07 $l=3.35e-07 $layer=POLY_cond $X=3.2 $Y=5.185
+ $X2=3.2 $Y2=4.85
r126 34 45 20.4101 $w=1.5e-07 $l=7.5e-08 $layer=POLY_cond $X=2.855 $Y=5.26
+ $X2=2.78 $Y2=5.26
r127 33 46 20.4101 $w=1.5e-07 $l=7.5e-08 $layer=POLY_cond $X=3.125 $Y=5.26
+ $X2=3.2 $Y2=5.26
r128 33 34 138.447 $w=1.5e-07 $l=2.7e-07 $layer=POLY_cond $X=3.125 $Y=5.26
+ $X2=2.855 $Y2=5.26
r129 30 45 5.30422 $w=1.5e-07 $l=7.5e-08 $layer=POLY_cond $X=2.78 $Y=5.185
+ $X2=2.78 $Y2=5.26
r130 30 32 107.647 $w=1.5e-07 $l=3.35e-07 $layer=POLY_cond $X=2.78 $Y=5.185
+ $X2=2.78 $Y2=4.85
r131 29 44 20.4101 $w=1.5e-07 $l=7.5e-08 $layer=POLY_cond $X=2.435 $Y=5.26
+ $X2=2.36 $Y2=5.26
r132 28 45 20.4101 $w=1.5e-07 $l=7.5e-08 $layer=POLY_cond $X=2.705 $Y=5.26
+ $X2=2.78 $Y2=5.26
r133 28 29 138.447 $w=1.5e-07 $l=2.7e-07 $layer=POLY_cond $X=2.705 $Y=5.26
+ $X2=2.435 $Y2=5.26
r134 25 44 5.30422 $w=1.5e-07 $l=7.5e-08 $layer=POLY_cond $X=2.36 $Y=5.185
+ $X2=2.36 $Y2=5.26
r135 25 27 107.647 $w=1.5e-07 $l=3.35e-07 $layer=POLY_cond $X=2.36 $Y=5.185
+ $X2=2.36 $Y2=4.85
r136 23 44 20.4101 $w=1.5e-07 $l=7.5e-08 $layer=POLY_cond $X=2.285 $Y=5.26
+ $X2=2.36 $Y2=5.26
r137 23 24 312.787 $w=1.5e-07 $l=6.1e-07 $layer=POLY_cond $X=2.285 $Y=5.26
+ $X2=1.675 $Y2=5.26
r138 22 24 26.9307 $w=1.5e-07 $l=1.06066e-07 $layer=POLY_cond $X=1.6 $Y=5.185
+ $X2=1.675 $Y2=5.26
r139 21 22 246.128 $w=1.5e-07 $l=4.8e-07 $layer=POLY_cond $X=1.6 $Y=4.705
+ $X2=1.6 $Y2=5.185
r140 20 43 13.9575 $w=1.5e-07 $l=1e-07 $layer=POLY_cond $X=1.19 $Y=4.63 $X2=1.09
+ $Y2=4.63
r141 19 21 26.9307 $w=1.5e-07 $l=1.06066e-07 $layer=POLY_cond $X=1.525 $Y=4.63
+ $X2=1.6 $Y2=4.705
r142 19 20 171.777 $w=1.5e-07 $l=3.35e-07 $layer=POLY_cond $X=1.525 $Y=4.63
+ $X2=1.19 $Y2=4.63
r143 16 18 129.872 $w=1.8e-07 $l=4.85e-07 $layer=POLY_cond $X=1.09 $Y=3.89
+ $X2=1.09 $Y2=3.405
r144 13 43 10.2464 $w=1.5e-07 $l=8.66025e-08 $layer=POLY_cond $X=1.065 $Y=4.705
+ $X2=1.09 $Y2=4.63
r145 13 15 93.1867 $w=1.5e-07 $l=2.9e-07 $layer=POLY_cond $X=1.065 $Y=4.705
+ $X2=1.065 $Y2=4.995
r146 12 43 10.2464 $w=2e-07 $l=7.5e-08 $layer=POLY_cond $X=1.09 $Y=4.555
+ $X2=1.09 $Y2=4.63
r147 11 16 33.5616 $w=2e-07 $l=1e-07 $layer=POLY_cond $X=1.09 $Y=3.99 $X2=1.09
+ $Y2=3.89
r148 11 12 187.341 $w=2e-07 $l=5.65e-07 $layer=POLY_cond $X=1.09 $Y=3.99
+ $X2=1.09 $Y2=4.555
r149 10 52 7.64856 $w=1.5e-07 $l=1e-07 $layer=POLY_cond $X=0.72 $Y=4.63 $X2=0.62
+ $Y2=4.63
r150 9 43 13.9575 $w=1.5e-07 $l=1e-07 $layer=POLY_cond $X=0.99 $Y=4.63 $X2=1.09
+ $Y2=4.63
r151 9 10 138.447 $w=1.5e-07 $l=2.7e-07 $layer=POLY_cond $X=0.99 $Y=4.63
+ $X2=0.72 $Y2=4.63
r152 6 52 21.4346 $w=1.84e-07 $l=8.66025e-08 $layer=POLY_cond $X=0.645 $Y=4.705
+ $X2=0.62 $Y2=4.63
r153 6 8 93.1867 $w=1.5e-07 $l=2.9e-07 $layer=POLY_cond $X=0.645 $Y=4.705
+ $X2=0.645 $Y2=4.995
r154 3 5 129.872 $w=1.8e-07 $l=4.85e-07 $layer=POLY_cond $X=0.62 $Y=3.89
+ $X2=0.62 $Y2=3.405
r155 1 52 91.6848 $w=1.84e-07 $l=3.5e-07 $layer=POLY_cond $X=0.62 $Y=4.28
+ $X2=0.62 $Y2=4.63
r156 1 51 72.64 $w=1.7e-07 $l=3.4e-07 $layer=licon1_POLY $count=2 $X=0.58
+ $Y=4.28 $X2=0.58 $Y2=4.28
r157 1 3 102.163 $w=1.84e-07 $l=3.9e-07 $layer=POLY_cond $X=0.62 $Y=4.28
+ $X2=0.62 $Y2=3.89
.ends

.subckt PM_SKY130_FD_SC_HDLL__MUXB8TO1_4%A_142_325# 1 2 7 9 10 11 12 14 15 17 19
+ 20 22 24 25 26 29 33 36 44 47 48 49 50
c112 22 0 9.37986e-20 $X=3.545 $Y=1.475
c113 20 0 1.74242e-19 $X=3.455 $Y=1.4
c114 17 0 9.37986e-20 $X=3.075 $Y=1.475
c115 12 0 9.37986e-20 $X=2.605 $Y=1.475
c116 7 0 9.37986e-20 $X=2.135 $Y=1.475
r117 45 50 15.1848 $w=2.93e-07 $l=1.14237e-07 $layer=POLY_cond $X=1.905 $Y=1.285
+ $X2=1.815 $Y2=1.23
r118 44 45 145.28 $w=1.7e-07 $l=1.7e-07 $layer=licon1_POLY $count=1 $X=1.905
+ $Y=1.23 $X2=1.905 $Y2=1.23
r119 42 50 55.5434 $w=2.7e-07 $l=2.5e-07 $layer=POLY_cond $X=1.565 $Y=1.23
+ $X2=1.815 $Y2=1.23
r120 41 44 11.8737 $w=3.28e-07 $l=3.4e-07 $layer=LI1_cond $X=1.565 $Y=1.23
+ $X2=1.905 $Y2=1.23
r121 41 42 145.28 $w=1.7e-07 $l=1.7e-07 $layer=licon1_POLY $count=1 $X=1.565
+ $Y=1.23 $X2=1.565 $Y2=1.23
r122 39 49 0.89609 $w=3.3e-07 $l=8.5e-08 $layer=LI1_cond $X=1.02 $Y=1.23
+ $X2=0.935 $Y2=1.23
r123 39 41 19.0328 $w=3.28e-07 $l=5.45e-07 $layer=LI1_cond $X=1.02 $Y=1.23
+ $X2=1.565 $Y2=1.23
r124 37 49 8.61065 $w=1.7e-07 $l=1.65e-07 $layer=LI1_cond $X=0.935 $Y=1.395
+ $X2=0.935 $Y2=1.23
r125 37 47 13.7005 $w=1.68e-07 $l=2.1e-07 $layer=LI1_cond $X=0.935 $Y=1.395
+ $X2=0.935 $Y2=1.605
r126 36 49 8.61065 $w=1.7e-07 $l=1.65e-07 $layer=LI1_cond $X=0.935 $Y=1.065
+ $X2=0.935 $Y2=1.23
r127 36 48 15.6578 $w=1.68e-07 $l=2.4e-07 $layer=LI1_cond $X=0.935 $Y=1.065
+ $X2=0.935 $Y2=0.825
r128 31 48 6.94937 $w=2.48e-07 $l=1.25e-07 $layer=LI1_cond $X=0.895 $Y=0.7
+ $X2=0.895 $Y2=0.825
r129 31 33 11.7549 $w=2.48e-07 $l=2.55e-07 $layer=LI1_cond $X=0.895 $Y=0.7
+ $X2=0.895 $Y2=0.445
r130 29 47 8.46218 $w=3.28e-07 $l=1.65e-07 $layer=LI1_cond $X=0.855 $Y=1.77
+ $X2=0.855 $Y2=1.605
r131 22 24 131.211 $w=1.8e-07 $l=4.9e-07 $layer=POLY_cond $X=3.545 $Y=1.475
+ $X2=3.545 $Y2=1.965
r132 21 26 23.6879 $w=1.5e-07 $l=9e-08 $layer=POLY_cond $X=3.165 $Y=1.4
+ $X2=3.075 $Y2=1.4
r133 20 22 27.2212 $w=1.5e-07 $l=1.21861e-07 $layer=POLY_cond $X=3.455 $Y=1.4
+ $X2=3.545 $Y2=1.475
r134 20 21 148.702 $w=1.5e-07 $l=2.9e-07 $layer=POLY_cond $X=3.455 $Y=1.4
+ $X2=3.165 $Y2=1.4
r135 17 26 2.7459 $w=1.8e-07 $l=7.5e-08 $layer=POLY_cond $X=3.075 $Y=1.475
+ $X2=3.075 $Y2=1.4
r136 17 19 131.211 $w=1.8e-07 $l=4.9e-07 $layer=POLY_cond $X=3.075 $Y=1.475
+ $X2=3.075 $Y2=1.965
r137 16 25 23.6879 $w=1.5e-07 $l=9e-08 $layer=POLY_cond $X=2.695 $Y=1.4
+ $X2=2.605 $Y2=1.4
r138 15 26 23.6879 $w=1.5e-07 $l=9e-08 $layer=POLY_cond $X=2.985 $Y=1.4
+ $X2=3.075 $Y2=1.4
r139 15 16 148.702 $w=1.5e-07 $l=2.9e-07 $layer=POLY_cond $X=2.985 $Y=1.4
+ $X2=2.695 $Y2=1.4
r140 12 25 2.7459 $w=1.8e-07 $l=7.5e-08 $layer=POLY_cond $X=2.605 $Y=1.475
+ $X2=2.605 $Y2=1.4
r141 12 14 131.211 $w=1.8e-07 $l=4.9e-07 $layer=POLY_cond $X=2.605 $Y=1.475
+ $X2=2.605 $Y2=1.965
r142 10 25 23.6879 $w=1.5e-07 $l=9e-08 $layer=POLY_cond $X=2.515 $Y=1.4
+ $X2=2.605 $Y2=1.4
r143 10 11 148.702 $w=1.5e-07 $l=2.9e-07 $layer=POLY_cond $X=2.515 $Y=1.4
+ $X2=2.225 $Y2=1.4
r144 7 11 26.2537 $w=2.93e-07 $l=1.21861e-07 $layer=POLY_cond $X=2.135 $Y=1.475
+ $X2=2.225 $Y2=1.4
r145 7 45 37.8362 $w=2.93e-07 $l=3.10805e-07 $layer=POLY_cond $X=2.135 $Y=1.475
+ $X2=1.905 $Y2=1.285
r146 7 9 131.211 $w=1.8e-07 $l=4.9e-07 $layer=POLY_cond $X=2.135 $Y=1.475
+ $X2=2.135 $Y2=1.965
r147 2 29 300 $w=1.7e-07 $l=2.05061e-07 $layer=licon1_PDIFF $count=2 $X=0.71
+ $Y=1.625 $X2=0.855 $Y2=1.77
r148 1 33 182 $w=1.7e-07 $l=2.69165e-07 $layer=licon1_NDIFF $count=1 $X=0.72
+ $Y=0.235 $X2=0.855 $Y2=0.445
.ends

.subckt PM_SKY130_FD_SC_HDLL__MUXB8TO1_4%A_142_599# 1 2 7 9 10 11 12 14 15 17 19
+ 20 22 24 25 26 29 31 33 36 44 47 48 49 50
c118 22 0 9.37986e-20 $X=3.545 $Y=3.965
c119 20 0 1.74242e-19 $X=3.455 $Y=4.04
c120 17 0 9.37986e-20 $X=3.075 $Y=3.965
c121 12 0 9.37986e-20 $X=2.605 $Y=3.965
c122 7 0 9.37986e-20 $X=2.135 $Y=3.965
r123 45 50 15.1848 $w=2.93e-07 $l=1.14237e-07 $layer=POLY_cond $X=1.905 $Y=4.155
+ $X2=1.815 $Y2=4.21
r124 44 45 145.28 $w=1.7e-07 $l=1.7e-07 $layer=licon1_POLY $count=1 $X=1.905
+ $Y=4.21 $X2=1.905 $Y2=4.21
r125 42 50 55.5434 $w=2.7e-07 $l=2.5e-07 $layer=POLY_cond $X=1.565 $Y=4.21
+ $X2=1.815 $Y2=4.21
r126 41 44 11.8737 $w=3.28e-07 $l=3.4e-07 $layer=LI1_cond $X=1.565 $Y=4.21
+ $X2=1.905 $Y2=4.21
r127 41 42 145.28 $w=1.7e-07 $l=1.7e-07 $layer=licon1_POLY $count=1 $X=1.565
+ $Y=4.21 $X2=1.565 $Y2=4.21
r128 39 49 0.89609 $w=3.3e-07 $l=8.5e-08 $layer=LI1_cond $X=1.02 $Y=4.21
+ $X2=0.935 $Y2=4.21
r129 39 41 19.0328 $w=3.28e-07 $l=5.45e-07 $layer=LI1_cond $X=1.02 $Y=4.21
+ $X2=1.565 $Y2=4.21
r130 37 49 8.61065 $w=1.7e-07 $l=1.65e-07 $layer=LI1_cond $X=0.935 $Y=4.375
+ $X2=0.935 $Y2=4.21
r131 37 48 15.6578 $w=1.68e-07 $l=2.4e-07 $layer=LI1_cond $X=0.935 $Y=4.375
+ $X2=0.935 $Y2=4.615
r132 36 49 8.61065 $w=1.7e-07 $l=1.65e-07 $layer=LI1_cond $X=0.935 $Y=4.045
+ $X2=0.935 $Y2=4.21
r133 36 47 13.7005 $w=1.68e-07 $l=2.1e-07 $layer=LI1_cond $X=0.935 $Y=4.045
+ $X2=0.935 $Y2=3.835
r134 31 48 6.94937 $w=2.48e-07 $l=1.25e-07 $layer=LI1_cond $X=0.895 $Y=4.74
+ $X2=0.895 $Y2=4.615
r135 31 33 11.7549 $w=2.48e-07 $l=2.55e-07 $layer=LI1_cond $X=0.895 $Y=4.74
+ $X2=0.895 $Y2=4.995
r136 27 47 8.46218 $w=3.28e-07 $l=1.65e-07 $layer=LI1_cond $X=0.855 $Y=3.67
+ $X2=0.855 $Y2=3.835
r137 27 29 18.5089 $w=3.28e-07 $l=5.3e-07 $layer=LI1_cond $X=0.855 $Y=3.67
+ $X2=0.855 $Y2=3.14
r138 22 24 131.211 $w=1.8e-07 $l=4.9e-07 $layer=POLY_cond $X=3.545 $Y=3.965
+ $X2=3.545 $Y2=3.475
r139 21 26 23.6879 $w=1.5e-07 $l=9e-08 $layer=POLY_cond $X=3.165 $Y=4.04
+ $X2=3.075 $Y2=4.04
r140 20 22 27.2212 $w=1.5e-07 $l=1.21861e-07 $layer=POLY_cond $X=3.455 $Y=4.04
+ $X2=3.545 $Y2=3.965
r141 20 21 148.702 $w=1.5e-07 $l=2.9e-07 $layer=POLY_cond $X=3.455 $Y=4.04
+ $X2=3.165 $Y2=4.04
r142 17 26 2.7459 $w=1.8e-07 $l=7.5e-08 $layer=POLY_cond $X=3.075 $Y=3.965
+ $X2=3.075 $Y2=4.04
r143 17 19 131.211 $w=1.8e-07 $l=4.9e-07 $layer=POLY_cond $X=3.075 $Y=3.965
+ $X2=3.075 $Y2=3.475
r144 16 25 23.6879 $w=1.5e-07 $l=9e-08 $layer=POLY_cond $X=2.695 $Y=4.04
+ $X2=2.605 $Y2=4.04
r145 15 26 23.6879 $w=1.5e-07 $l=9e-08 $layer=POLY_cond $X=2.985 $Y=4.04
+ $X2=3.075 $Y2=4.04
r146 15 16 148.702 $w=1.5e-07 $l=2.9e-07 $layer=POLY_cond $X=2.985 $Y=4.04
+ $X2=2.695 $Y2=4.04
r147 12 25 2.7459 $w=1.8e-07 $l=7.5e-08 $layer=POLY_cond $X=2.605 $Y=3.965
+ $X2=2.605 $Y2=4.04
r148 12 14 131.211 $w=1.8e-07 $l=4.9e-07 $layer=POLY_cond $X=2.605 $Y=3.965
+ $X2=2.605 $Y2=3.475
r149 10 25 23.6879 $w=1.5e-07 $l=9e-08 $layer=POLY_cond $X=2.515 $Y=4.04
+ $X2=2.605 $Y2=4.04
r150 10 11 148.702 $w=1.5e-07 $l=2.9e-07 $layer=POLY_cond $X=2.515 $Y=4.04
+ $X2=2.225 $Y2=4.04
r151 7 11 26.2537 $w=2.93e-07 $l=1.21861e-07 $layer=POLY_cond $X=2.135 $Y=3.965
+ $X2=2.225 $Y2=4.04
r152 7 45 37.8362 $w=2.93e-07 $l=3.10805e-07 $layer=POLY_cond $X=2.135 $Y=3.965
+ $X2=1.905 $Y2=4.155
r153 7 9 131.211 $w=1.8e-07 $l=4.9e-07 $layer=POLY_cond $X=2.135 $Y=3.965
+ $X2=2.135 $Y2=3.475
r154 2 29 300 $w=1.7e-07 $l=2.05061e-07 $layer=licon1_PDIFF $count=2 $X=0.71
+ $Y=2.995 $X2=0.855 $Y2=3.14
r155 1 33 182 $w=1.7e-07 $l=2.69165e-07 $layer=licon1_NDIFF $count=1 $X=0.72
+ $Y=4.785 $X2=0.855 $Y2=4.995
.ends

.subckt PM_SKY130_FD_SC_HDLL__MUXB8TO1_4%D[0] 3 7 11 15 19 23 27 31 33 35 36 52
+ 54
c99 52 0 1.35498e-19 $X=5.84 $Y=1.16
c100 31 0 1.35498e-19 $X=5.945 $Y=1.985
r101 53 54 5.55434 $w=2.7e-07 $l=2.5e-08 $layer=POLY_cond $X=5.92 $Y=1.16
+ $X2=5.945 $Y2=1.16
r102 51 53 17.7739 $w=2.7e-07 $l=8e-08 $layer=POLY_cond $X=5.84 $Y=1.16 $X2=5.92
+ $Y2=1.16
r103 51 52 72.64 $w=1.7e-07 $l=3.4e-07 $layer=licon1_POLY $count=2 $X=5.84
+ $Y=1.16 $X2=5.84 $Y2=1.16
r104 49 51 75.5391 $w=2.7e-07 $l=3.4e-07 $layer=POLY_cond $X=5.5 $Y=1.16
+ $X2=5.84 $Y2=1.16
r105 48 49 5.55434 $w=2.7e-07 $l=2.5e-08 $layer=POLY_cond $X=5.475 $Y=1.16
+ $X2=5.5 $Y2=1.16
r106 46 47 5.55434 $w=2.7e-07 $l=2.5e-08 $layer=POLY_cond $X=4.98 $Y=1.16
+ $X2=5.005 $Y2=1.16
r107 44 46 35.5478 $w=2.7e-07 $l=1.6e-07 $layer=POLY_cond $X=4.82 $Y=1.16
+ $X2=4.98 $Y2=1.16
r108 44 45 145.28 $w=1.7e-07 $l=1.7e-07 $layer=licon1_POLY $count=1 $X=4.82
+ $Y=1.16 $X2=4.82 $Y2=1.16
r109 42 44 57.7652 $w=2.7e-07 $l=2.6e-07 $layer=POLY_cond $X=4.56 $Y=1.16
+ $X2=4.82 $Y2=1.16
r110 40 42 5.55434 $w=2.7e-07 $l=2.5e-08 $layer=POLY_cond $X=4.535 $Y=1.16
+ $X2=4.56 $Y2=1.16
r111 39 45 14.5122 $w=2.68e-07 $l=3.4e-07 $layer=LI1_cond $X=5.16 $Y=1.19
+ $X2=4.82 $Y2=1.19
r112 38 39 145.28 $w=1.7e-07 $l=1.7e-07 $layer=licon1_POLY $count=1 $X=5.16
+ $Y=1.16 $X2=5.16 $Y2=1.16
r113 36 47 19.9956 $w=2.7e-07 $l=9e-08 $layer=POLY_cond $X=5.095 $Y=1.16
+ $X2=5.005 $Y2=1.16
r114 36 38 14.4413 $w=2.7e-07 $l=6.5e-08 $layer=POLY_cond $X=5.095 $Y=1.16
+ $X2=5.16 $Y2=1.16
r115 35 48 19.9956 $w=2.7e-07 $l=9e-08 $layer=POLY_cond $X=5.385 $Y=1.16
+ $X2=5.475 $Y2=1.16
r116 35 38 49.9891 $w=2.7e-07 $l=2.25e-07 $layer=POLY_cond $X=5.385 $Y=1.16
+ $X2=5.16 $Y2=1.16
r117 33 52 3.84148 $w=2.68e-07 $l=9e-08 $layer=LI1_cond $X=5.75 $Y=1.19 $X2=5.84
+ $Y2=1.19
r118 33 39 25.183 $w=2.68e-07 $l=5.9e-07 $layer=LI1_cond $X=5.75 $Y=1.19
+ $X2=5.16 $Y2=1.19
r119 29 54 12.2893 $w=1.8e-07 $l=1.35e-07 $layer=POLY_cond $X=5.945 $Y=1.295
+ $X2=5.945 $Y2=1.16
r120 29 31 268.21 $w=1.8e-07 $l=6.9e-07 $layer=POLY_cond $X=5.945 $Y=1.295
+ $X2=5.945 $Y2=1.985
r121 25 53 16.5046 $w=1.5e-07 $l=1.35e-07 $layer=POLY_cond $X=5.92 $Y=1.025
+ $X2=5.92 $Y2=1.16
r122 25 27 238.436 $w=1.5e-07 $l=4.65e-07 $layer=POLY_cond $X=5.92 $Y=1.025
+ $X2=5.92 $Y2=0.56
r123 21 49 16.5046 $w=1.5e-07 $l=1.35e-07 $layer=POLY_cond $X=5.5 $Y=1.025
+ $X2=5.5 $Y2=1.16
r124 21 23 238.436 $w=1.5e-07 $l=4.65e-07 $layer=POLY_cond $X=5.5 $Y=1.025
+ $X2=5.5 $Y2=0.56
r125 17 48 12.2893 $w=1.8e-07 $l=1.35e-07 $layer=POLY_cond $X=5.475 $Y=1.295
+ $X2=5.475 $Y2=1.16
r126 17 19 268.21 $w=1.8e-07 $l=6.9e-07 $layer=POLY_cond $X=5.475 $Y=1.295
+ $X2=5.475 $Y2=1.985
r127 13 47 12.2893 $w=1.8e-07 $l=1.35e-07 $layer=POLY_cond $X=5.005 $Y=1.295
+ $X2=5.005 $Y2=1.16
r128 13 15 268.21 $w=1.8e-07 $l=6.9e-07 $layer=POLY_cond $X=5.005 $Y=1.295
+ $X2=5.005 $Y2=1.985
r129 9 46 16.5046 $w=1.5e-07 $l=1.35e-07 $layer=POLY_cond $X=4.98 $Y=1.025
+ $X2=4.98 $Y2=1.16
r130 9 11 238.436 $w=1.5e-07 $l=4.65e-07 $layer=POLY_cond $X=4.98 $Y=1.025
+ $X2=4.98 $Y2=0.56
r131 5 42 16.5046 $w=1.5e-07 $l=1.35e-07 $layer=POLY_cond $X=4.56 $Y=1.025
+ $X2=4.56 $Y2=1.16
r132 5 7 238.436 $w=1.5e-07 $l=4.65e-07 $layer=POLY_cond $X=4.56 $Y=1.025
+ $X2=4.56 $Y2=0.56
r133 1 40 12.2893 $w=1.8e-07 $l=1.35e-07 $layer=POLY_cond $X=4.535 $Y=1.295
+ $X2=4.535 $Y2=1.16
r134 1 3 268.21 $w=1.8e-07 $l=6.9e-07 $layer=POLY_cond $X=4.535 $Y=1.295
+ $X2=4.535 $Y2=1.985
.ends

.subckt PM_SKY130_FD_SC_HDLL__MUXB8TO1_4%D[1] 3 7 11 15 19 23 27 31 33 35 36 52
+ 54
c97 52 0 1.35498e-19 $X=5.84 $Y=4.28
c98 31 0 1.35498e-19 $X=5.945 $Y=3.455
r99 53 54 5.55434 $w=2.7e-07 $l=2.5e-08 $layer=POLY_cond $X=5.92 $Y=4.28
+ $X2=5.945 $Y2=4.28
r100 51 53 17.7739 $w=2.7e-07 $l=8e-08 $layer=POLY_cond $X=5.84 $Y=4.28 $X2=5.92
+ $Y2=4.28
r101 51 52 72.64 $w=1.7e-07 $l=3.4e-07 $layer=licon1_POLY $count=2 $X=5.84
+ $Y=4.28 $X2=5.84 $Y2=4.28
r102 49 51 75.5391 $w=2.7e-07 $l=3.4e-07 $layer=POLY_cond $X=5.5 $Y=4.28
+ $X2=5.84 $Y2=4.28
r103 48 49 5.55434 $w=2.7e-07 $l=2.5e-08 $layer=POLY_cond $X=5.475 $Y=4.28
+ $X2=5.5 $Y2=4.28
r104 46 47 5.55434 $w=2.7e-07 $l=2.5e-08 $layer=POLY_cond $X=4.98 $Y=4.28
+ $X2=5.005 $Y2=4.28
r105 44 46 35.5478 $w=2.7e-07 $l=1.6e-07 $layer=POLY_cond $X=4.82 $Y=4.28
+ $X2=4.98 $Y2=4.28
r106 44 45 145.28 $w=1.7e-07 $l=1.7e-07 $layer=licon1_POLY $count=1 $X=4.82
+ $Y=4.28 $X2=4.82 $Y2=4.28
r107 42 44 57.7652 $w=2.7e-07 $l=2.6e-07 $layer=POLY_cond $X=4.56 $Y=4.28
+ $X2=4.82 $Y2=4.28
r108 40 42 5.55434 $w=2.7e-07 $l=2.5e-08 $layer=POLY_cond $X=4.535 $Y=4.28
+ $X2=4.56 $Y2=4.28
r109 39 45 14.5122 $w=2.68e-07 $l=3.4e-07 $layer=LI1_cond $X=5.16 $Y=4.25
+ $X2=4.82 $Y2=4.25
r110 38 39 145.28 $w=1.7e-07 $l=1.7e-07 $layer=licon1_POLY $count=1 $X=5.16
+ $Y=4.28 $X2=5.16 $Y2=4.28
r111 36 47 19.9956 $w=2.7e-07 $l=9e-08 $layer=POLY_cond $X=5.095 $Y=4.28
+ $X2=5.005 $Y2=4.28
r112 36 38 14.4413 $w=2.7e-07 $l=6.5e-08 $layer=POLY_cond $X=5.095 $Y=4.28
+ $X2=5.16 $Y2=4.28
r113 35 48 19.9956 $w=2.7e-07 $l=9e-08 $layer=POLY_cond $X=5.385 $Y=4.28
+ $X2=5.475 $Y2=4.28
r114 35 38 49.9891 $w=2.7e-07 $l=2.25e-07 $layer=POLY_cond $X=5.385 $Y=4.28
+ $X2=5.16 $Y2=4.28
r115 33 52 3.84148 $w=2.68e-07 $l=9e-08 $layer=LI1_cond $X=5.75 $Y=4.25 $X2=5.84
+ $Y2=4.25
r116 33 39 25.183 $w=2.68e-07 $l=5.9e-07 $layer=LI1_cond $X=5.75 $Y=4.25
+ $X2=5.16 $Y2=4.25
r117 29 54 12.2893 $w=1.8e-07 $l=1.35e-07 $layer=POLY_cond $X=5.945 $Y=4.145
+ $X2=5.945 $Y2=4.28
r118 29 31 268.21 $w=1.8e-07 $l=6.9e-07 $layer=POLY_cond $X=5.945 $Y=4.145
+ $X2=5.945 $Y2=3.455
r119 25 53 16.5046 $w=1.5e-07 $l=1.35e-07 $layer=POLY_cond $X=5.92 $Y=4.415
+ $X2=5.92 $Y2=4.28
r120 25 27 238.436 $w=1.5e-07 $l=4.65e-07 $layer=POLY_cond $X=5.92 $Y=4.415
+ $X2=5.92 $Y2=4.88
r121 21 49 16.5046 $w=1.5e-07 $l=1.35e-07 $layer=POLY_cond $X=5.5 $Y=4.415
+ $X2=5.5 $Y2=4.28
r122 21 23 238.436 $w=1.5e-07 $l=4.65e-07 $layer=POLY_cond $X=5.5 $Y=4.415
+ $X2=5.5 $Y2=4.88
r123 17 48 12.2893 $w=1.8e-07 $l=1.35e-07 $layer=POLY_cond $X=5.475 $Y=4.145
+ $X2=5.475 $Y2=4.28
r124 17 19 268.21 $w=1.8e-07 $l=6.9e-07 $layer=POLY_cond $X=5.475 $Y=4.145
+ $X2=5.475 $Y2=3.455
r125 13 47 12.2893 $w=1.8e-07 $l=1.35e-07 $layer=POLY_cond $X=5.005 $Y=4.145
+ $X2=5.005 $Y2=4.28
r126 13 15 268.21 $w=1.8e-07 $l=6.9e-07 $layer=POLY_cond $X=5.005 $Y=4.145
+ $X2=5.005 $Y2=3.455
r127 9 46 16.5046 $w=1.5e-07 $l=1.35e-07 $layer=POLY_cond $X=4.98 $Y=4.415
+ $X2=4.98 $Y2=4.28
r128 9 11 238.436 $w=1.5e-07 $l=4.65e-07 $layer=POLY_cond $X=4.98 $Y=4.415
+ $X2=4.98 $Y2=4.88
r129 5 42 16.5046 $w=1.5e-07 $l=1.35e-07 $layer=POLY_cond $X=4.56 $Y=4.415
+ $X2=4.56 $Y2=4.28
r130 5 7 238.436 $w=1.5e-07 $l=4.65e-07 $layer=POLY_cond $X=4.56 $Y=4.415
+ $X2=4.56 $Y2=4.88
r131 1 40 12.2893 $w=1.8e-07 $l=1.35e-07 $layer=POLY_cond $X=4.535 $Y=4.145
+ $X2=4.535 $Y2=4.28
r132 1 3 268.21 $w=1.8e-07 $l=6.9e-07 $layer=POLY_cond $X=4.535 $Y=4.145
+ $X2=4.535 $Y2=3.455
.ends

.subckt PM_SKY130_FD_SC_HDLL__MUXB8TO1_4%D[2] 3 7 11 15 19 23 27 31 33 35 36 51
+ 53
c101 51 0 1.35498e-19 $X=7.6 $Y=1.16
c102 3 0 1.35498e-19 $X=6.475 $Y=1.985
r103 52 53 5.55434 $w=2.7e-07 $l=2.5e-08 $layer=POLY_cond $X=7.86 $Y=1.16
+ $X2=7.885 $Y2=1.16
r104 50 52 57.7652 $w=2.7e-07 $l=2.6e-07 $layer=POLY_cond $X=7.6 $Y=1.16
+ $X2=7.86 $Y2=1.16
r105 50 51 145.28 $w=1.7e-07 $l=1.7e-07 $layer=licon1_POLY $count=1 $X=7.6
+ $Y=1.16 $X2=7.6 $Y2=1.16
r106 48 50 35.5478 $w=2.7e-07 $l=1.6e-07 $layer=POLY_cond $X=7.44 $Y=1.16
+ $X2=7.6 $Y2=1.16
r107 47 48 5.55434 $w=2.7e-07 $l=2.5e-08 $layer=POLY_cond $X=7.415 $Y=1.16
+ $X2=7.44 $Y2=1.16
r108 44 46 5.55434 $w=2.7e-07 $l=2.5e-08 $layer=POLY_cond $X=6.92 $Y=1.16
+ $X2=6.945 $Y2=1.16
r109 44 45 72.64 $w=1.7e-07 $l=3.4e-07 $layer=licon1_POLY $count=2 $X=6.92
+ $Y=1.16 $X2=6.92 $Y2=1.16
r110 42 44 93.313 $w=2.7e-07 $l=4.2e-07 $layer=POLY_cond $X=6.5 $Y=1.16 $X2=6.92
+ $Y2=1.16
r111 40 42 5.55434 $w=2.7e-07 $l=2.5e-08 $layer=POLY_cond $X=6.475 $Y=1.16
+ $X2=6.5 $Y2=1.16
r112 39 51 14.5122 $w=2.68e-07 $l=3.4e-07 $layer=LI1_cond $X=7.26 $Y=1.19
+ $X2=7.6 $Y2=1.19
r113 39 45 14.5122 $w=2.68e-07 $l=3.4e-07 $layer=LI1_cond $X=7.26 $Y=1.19
+ $X2=6.92 $Y2=1.19
r114 38 39 145.28 $w=1.7e-07 $l=1.7e-07 $layer=licon1_POLY $count=1 $X=7.26
+ $Y=1.16 $X2=7.26 $Y2=1.16
r115 36 46 19.9956 $w=2.7e-07 $l=9e-08 $layer=POLY_cond $X=7.035 $Y=1.16
+ $X2=6.945 $Y2=1.16
r116 36 38 49.9891 $w=2.7e-07 $l=2.25e-07 $layer=POLY_cond $X=7.035 $Y=1.16
+ $X2=7.26 $Y2=1.16
r117 35 47 19.9956 $w=2.7e-07 $l=9e-08 $layer=POLY_cond $X=7.325 $Y=1.16
+ $X2=7.415 $Y2=1.16
r118 35 38 14.4413 $w=2.7e-07 $l=6.5e-08 $layer=POLY_cond $X=7.325 $Y=1.16
+ $X2=7.26 $Y2=1.16
r119 33 45 10.6708 $w=2.68e-07 $l=2.5e-07 $layer=LI1_cond $X=6.67 $Y=1.19
+ $X2=6.92 $Y2=1.19
r120 29 53 12.2893 $w=1.8e-07 $l=1.35e-07 $layer=POLY_cond $X=7.885 $Y=1.295
+ $X2=7.885 $Y2=1.16
r121 29 31 268.21 $w=1.8e-07 $l=6.9e-07 $layer=POLY_cond $X=7.885 $Y=1.295
+ $X2=7.885 $Y2=1.985
r122 25 52 16.5046 $w=1.5e-07 $l=1.35e-07 $layer=POLY_cond $X=7.86 $Y=1.025
+ $X2=7.86 $Y2=1.16
r123 25 27 238.436 $w=1.5e-07 $l=4.65e-07 $layer=POLY_cond $X=7.86 $Y=1.025
+ $X2=7.86 $Y2=0.56
r124 21 48 16.5046 $w=1.5e-07 $l=1.35e-07 $layer=POLY_cond $X=7.44 $Y=1.025
+ $X2=7.44 $Y2=1.16
r125 21 23 238.436 $w=1.5e-07 $l=4.65e-07 $layer=POLY_cond $X=7.44 $Y=1.025
+ $X2=7.44 $Y2=0.56
r126 17 47 12.2893 $w=1.8e-07 $l=1.35e-07 $layer=POLY_cond $X=7.415 $Y=1.295
+ $X2=7.415 $Y2=1.16
r127 17 19 268.21 $w=1.8e-07 $l=6.9e-07 $layer=POLY_cond $X=7.415 $Y=1.295
+ $X2=7.415 $Y2=1.985
r128 13 46 12.2893 $w=1.8e-07 $l=1.35e-07 $layer=POLY_cond $X=6.945 $Y=1.295
+ $X2=6.945 $Y2=1.16
r129 13 15 268.21 $w=1.8e-07 $l=6.9e-07 $layer=POLY_cond $X=6.945 $Y=1.295
+ $X2=6.945 $Y2=1.985
r130 9 44 16.5046 $w=1.5e-07 $l=1.35e-07 $layer=POLY_cond $X=6.92 $Y=1.025
+ $X2=6.92 $Y2=1.16
r131 9 11 238.436 $w=1.5e-07 $l=4.65e-07 $layer=POLY_cond $X=6.92 $Y=1.025
+ $X2=6.92 $Y2=0.56
r132 5 42 16.5046 $w=1.5e-07 $l=1.35e-07 $layer=POLY_cond $X=6.5 $Y=1.025
+ $X2=6.5 $Y2=1.16
r133 5 7 238.436 $w=1.5e-07 $l=4.65e-07 $layer=POLY_cond $X=6.5 $Y=1.025 $X2=6.5
+ $Y2=0.56
r134 1 40 12.2893 $w=1.8e-07 $l=1.35e-07 $layer=POLY_cond $X=6.475 $Y=1.295
+ $X2=6.475 $Y2=1.16
r135 1 3 268.21 $w=1.8e-07 $l=6.9e-07 $layer=POLY_cond $X=6.475 $Y=1.295
+ $X2=6.475 $Y2=1.985
.ends

.subckt PM_SKY130_FD_SC_HDLL__MUXB8TO1_4%D[3] 3 7 11 15 19 23 27 31 33 35 36 51
+ 53
c97 51 0 1.35498e-19 $X=7.6 $Y=4.28
c98 3 0 1.35498e-19 $X=6.475 $Y=3.455
r99 52 53 5.55434 $w=2.7e-07 $l=2.5e-08 $layer=POLY_cond $X=7.86 $Y=4.28
+ $X2=7.885 $Y2=4.28
r100 50 52 57.7652 $w=2.7e-07 $l=2.6e-07 $layer=POLY_cond $X=7.6 $Y=4.28
+ $X2=7.86 $Y2=4.28
r101 50 51 145.28 $w=1.7e-07 $l=1.7e-07 $layer=licon1_POLY $count=1 $X=7.6
+ $Y=4.28 $X2=7.6 $Y2=4.28
r102 48 50 35.5478 $w=2.7e-07 $l=1.6e-07 $layer=POLY_cond $X=7.44 $Y=4.28
+ $X2=7.6 $Y2=4.28
r103 47 48 5.55434 $w=2.7e-07 $l=2.5e-08 $layer=POLY_cond $X=7.415 $Y=4.28
+ $X2=7.44 $Y2=4.28
r104 44 46 5.55434 $w=2.7e-07 $l=2.5e-08 $layer=POLY_cond $X=6.92 $Y=4.28
+ $X2=6.945 $Y2=4.28
r105 44 45 72.64 $w=1.7e-07 $l=3.4e-07 $layer=licon1_POLY $count=2 $X=6.92
+ $Y=4.28 $X2=6.92 $Y2=4.28
r106 42 44 93.313 $w=2.7e-07 $l=4.2e-07 $layer=POLY_cond $X=6.5 $Y=4.28 $X2=6.92
+ $Y2=4.28
r107 40 42 5.55434 $w=2.7e-07 $l=2.5e-08 $layer=POLY_cond $X=6.475 $Y=4.28
+ $X2=6.5 $Y2=4.28
r108 39 51 14.5122 $w=2.68e-07 $l=3.4e-07 $layer=LI1_cond $X=7.26 $Y=4.25
+ $X2=7.6 $Y2=4.25
r109 39 45 14.5122 $w=2.68e-07 $l=3.4e-07 $layer=LI1_cond $X=7.26 $Y=4.25
+ $X2=6.92 $Y2=4.25
r110 38 39 145.28 $w=1.7e-07 $l=1.7e-07 $layer=licon1_POLY $count=1 $X=7.26
+ $Y=4.28 $X2=7.26 $Y2=4.28
r111 36 46 19.9956 $w=2.7e-07 $l=9e-08 $layer=POLY_cond $X=7.035 $Y=4.28
+ $X2=6.945 $Y2=4.28
r112 36 38 49.9891 $w=2.7e-07 $l=2.25e-07 $layer=POLY_cond $X=7.035 $Y=4.28
+ $X2=7.26 $Y2=4.28
r113 35 47 19.9956 $w=2.7e-07 $l=9e-08 $layer=POLY_cond $X=7.325 $Y=4.28
+ $X2=7.415 $Y2=4.28
r114 35 38 14.4413 $w=2.7e-07 $l=6.5e-08 $layer=POLY_cond $X=7.325 $Y=4.28
+ $X2=7.26 $Y2=4.28
r115 33 45 10.6708 $w=2.68e-07 $l=2.5e-07 $layer=LI1_cond $X=6.67 $Y=4.25
+ $X2=6.92 $Y2=4.25
r116 29 53 12.2893 $w=1.8e-07 $l=1.35e-07 $layer=POLY_cond $X=7.885 $Y=4.145
+ $X2=7.885 $Y2=4.28
r117 29 31 268.21 $w=1.8e-07 $l=6.9e-07 $layer=POLY_cond $X=7.885 $Y=4.145
+ $X2=7.885 $Y2=3.455
r118 25 52 16.5046 $w=1.5e-07 $l=1.35e-07 $layer=POLY_cond $X=7.86 $Y=4.415
+ $X2=7.86 $Y2=4.28
r119 25 27 238.436 $w=1.5e-07 $l=4.65e-07 $layer=POLY_cond $X=7.86 $Y=4.415
+ $X2=7.86 $Y2=4.88
r120 21 48 16.5046 $w=1.5e-07 $l=1.35e-07 $layer=POLY_cond $X=7.44 $Y=4.415
+ $X2=7.44 $Y2=4.28
r121 21 23 238.436 $w=1.5e-07 $l=4.65e-07 $layer=POLY_cond $X=7.44 $Y=4.415
+ $X2=7.44 $Y2=4.88
r122 17 47 12.2893 $w=1.8e-07 $l=1.35e-07 $layer=POLY_cond $X=7.415 $Y=4.145
+ $X2=7.415 $Y2=4.28
r123 17 19 268.21 $w=1.8e-07 $l=6.9e-07 $layer=POLY_cond $X=7.415 $Y=4.145
+ $X2=7.415 $Y2=3.455
r124 13 46 12.2893 $w=1.8e-07 $l=1.35e-07 $layer=POLY_cond $X=6.945 $Y=4.145
+ $X2=6.945 $Y2=4.28
r125 13 15 268.21 $w=1.8e-07 $l=6.9e-07 $layer=POLY_cond $X=6.945 $Y=4.145
+ $X2=6.945 $Y2=3.455
r126 9 44 16.5046 $w=1.5e-07 $l=1.35e-07 $layer=POLY_cond $X=6.92 $Y=4.415
+ $X2=6.92 $Y2=4.28
r127 9 11 238.436 $w=1.5e-07 $l=4.65e-07 $layer=POLY_cond $X=6.92 $Y=4.415
+ $X2=6.92 $Y2=4.88
r128 5 42 16.5046 $w=1.5e-07 $l=1.35e-07 $layer=POLY_cond $X=6.5 $Y=4.415
+ $X2=6.5 $Y2=4.28
r129 5 7 238.436 $w=1.5e-07 $l=4.65e-07 $layer=POLY_cond $X=6.5 $Y=4.415 $X2=6.5
+ $Y2=4.88
r130 1 40 12.2893 $w=1.8e-07 $l=1.35e-07 $layer=POLY_cond $X=6.475 $Y=4.145
+ $X2=6.475 $Y2=4.28
r131 1 3 268.21 $w=1.8e-07 $l=6.9e-07 $layer=POLY_cond $X=6.475 $Y=4.145
+ $X2=6.475 $Y2=3.455
.ends

.subckt PM_SKY130_FD_SC_HDLL__MUXB8TO1_4%A_1755_265# 1 2 7 9 10 11 12 14 15 17
+ 19 20 22 24 25 26 27 34 37 40 45 47 48 49 50
c119 22 0 9.37986e-20 $X=10.285 $Y=1.475
c120 20 0 1.10627e-19 $X=10.195 $Y=1.4
c121 17 0 9.37986e-20 $X=9.815 $Y=1.475
c122 12 0 9.37986e-20 $X=9.345 $Y=1.475
c123 11 0 1.74242e-19 $X=8.965 $Y=1.4
c124 7 0 9.37986e-20 $X=8.875 $Y=1.475
r125 45 49 8.46218 $w=3.28e-07 $l=1.65e-07 $layer=LI1_cond $X=11.565 $Y=1.77
+ $X2=11.565 $Y2=1.605
r126 41 48 8.61065 $w=1.7e-07 $l=1.65e-07 $layer=LI1_cond $X=11.485 $Y=1.395
+ $X2=11.485 $Y2=1.23
r127 41 49 13.7005 $w=1.68e-07 $l=2.1e-07 $layer=LI1_cond $X=11.485 $Y=1.395
+ $X2=11.485 $Y2=1.605
r128 40 48 8.61065 $w=1.7e-07 $l=1.65e-07 $layer=LI1_cond $X=11.485 $Y=1.065
+ $X2=11.485 $Y2=1.23
r129 40 47 15.6578 $w=1.68e-07 $l=2.4e-07 $layer=LI1_cond $X=11.485 $Y=1.065
+ $X2=11.485 $Y2=0.825
r130 35 47 6.94937 $w=2.48e-07 $l=1.25e-07 $layer=LI1_cond $X=11.525 $Y=0.7
+ $X2=11.525 $Y2=0.825
r131 35 37 11.7549 $w=2.48e-07 $l=2.55e-07 $layer=LI1_cond $X=11.525 $Y=0.7
+ $X2=11.525 $Y2=0.445
r132 34 50 55.5434 $w=2.7e-07 $l=2.5e-07 $layer=POLY_cond $X=10.855 $Y=1.23
+ $X2=10.605 $Y2=1.23
r133 33 34 145.28 $w=1.7e-07 $l=1.7e-07 $layer=licon1_POLY $count=1 $X=10.855
+ $Y=1.23 $X2=10.855 $Y2=1.23
r134 30 50 15.1848 $w=2.93e-07 $l=1.14237e-07 $layer=POLY_cond $X=10.515
+ $Y=1.285 $X2=10.605 $Y2=1.23
r135 29 33 11.8737 $w=3.28e-07 $l=3.4e-07 $layer=LI1_cond $X=10.515 $Y=1.23
+ $X2=10.855 $Y2=1.23