* File: sky130_fd_sc_hdll__nand2_16.pex.spice
* Created: Thu Aug 27 19:12:35 2020
* Program "Calibre xRC"
* Version "v2018.4_34.26"
* Nominal Temperature: 27C
* Circuit Temperature: 27C
* 
.subckt PM_SKY130_FD_SC_HDLL__NAND2_16%B 1 3 4 6 7 9 10 12 13 15 16 18 19 21 22
+ 24 25 27 28 30 31 33 34 36 37 39 40 42 43 45 46 48 49 51 52 54 55 57 58 60 61
+ 63 64 66 67 69 70 72 73 75 76 78 79 81 82 84 85 87 88 90 91 93 94 96 97 134
+ 135
r328 135 136 3.28338 $w=3.67e-07 $l=2.5e-08 $layer=POLY_cond $X=7.545 $Y=1.202
+ $X2=7.57 $Y2=1.202
r329 133 135 24.297 $w=3.67e-07 $l=1.85e-07 $layer=POLY_cond $X=7.36 $Y=1.202
+ $X2=7.545 $Y2=1.202
r330 133 134 13.8362 $w=1.7e-07 $l=1.785e-06 $layer=licon1_POLY $count=10
+ $X=7.36 $Y=1.16 $X2=7.36 $Y2=1.16
r331 131 133 37.4305 $w=3.67e-07 $l=2.85e-07 $layer=POLY_cond $X=7.075 $Y=1.202
+ $X2=7.36 $Y2=1.202
r332 130 131 3.28338 $w=3.67e-07 $l=2.5e-08 $layer=POLY_cond $X=7.05 $Y=1.202
+ $X2=7.075 $Y2=1.202
r333 129 130 55.1608 $w=3.67e-07 $l=4.2e-07 $layer=POLY_cond $X=6.63 $Y=1.202
+ $X2=7.05 $Y2=1.202
r334 128 129 3.28338 $w=3.67e-07 $l=2.5e-08 $layer=POLY_cond $X=6.605 $Y=1.202
+ $X2=6.63 $Y2=1.202
r335 127 128 61.7275 $w=3.67e-07 $l=4.7e-07 $layer=POLY_cond $X=6.135 $Y=1.202
+ $X2=6.605 $Y2=1.202
r336 126 127 3.28338 $w=3.67e-07 $l=2.5e-08 $layer=POLY_cond $X=6.11 $Y=1.202
+ $X2=6.135 $Y2=1.202
r337 125 126 55.1608 $w=3.67e-07 $l=4.2e-07 $layer=POLY_cond $X=5.69 $Y=1.202
+ $X2=6.11 $Y2=1.202
r338 124 125 3.28338 $w=3.67e-07 $l=2.5e-08 $layer=POLY_cond $X=5.665 $Y=1.202
+ $X2=5.69 $Y2=1.202
r339 123 124 61.7275 $w=3.67e-07 $l=4.7e-07 $layer=POLY_cond $X=5.195 $Y=1.202
+ $X2=5.665 $Y2=1.202
r340 122 123 3.28338 $w=3.67e-07 $l=2.5e-08 $layer=POLY_cond $X=5.17 $Y=1.202
+ $X2=5.195 $Y2=1.202
r341 121 122 55.1608 $w=3.67e-07 $l=4.2e-07 $layer=POLY_cond $X=4.75 $Y=1.202
+ $X2=5.17 $Y2=1.202
r342 120 121 3.28338 $w=3.67e-07 $l=2.5e-08 $layer=POLY_cond $X=4.725 $Y=1.202
+ $X2=4.75 $Y2=1.202
r343 119 120 61.7275 $w=3.67e-07 $l=4.7e-07 $layer=POLY_cond $X=4.255 $Y=1.202
+ $X2=4.725 $Y2=1.202
r344 118 119 3.28338 $w=3.67e-07 $l=2.5e-08 $layer=POLY_cond $X=4.23 $Y=1.202
+ $X2=4.255 $Y2=1.202
r345 117 118 55.1608 $w=3.67e-07 $l=4.2e-07 $layer=POLY_cond $X=3.81 $Y=1.202
+ $X2=4.23 $Y2=1.202
r346 116 117 3.28338 $w=3.67e-07 $l=2.5e-08 $layer=POLY_cond $X=3.785 $Y=1.202
+ $X2=3.81 $Y2=1.202
r347 115 116 61.7275 $w=3.67e-07 $l=4.7e-07 $layer=POLY_cond $X=3.315 $Y=1.202
+ $X2=3.785 $Y2=1.202
r348 114 115 3.28338 $w=3.67e-07 $l=2.5e-08 $layer=POLY_cond $X=3.29 $Y=1.202
+ $X2=3.315 $Y2=1.202
r349 113 114 55.1608 $w=3.67e-07 $l=4.2e-07 $layer=POLY_cond $X=2.87 $Y=1.202
+ $X2=3.29 $Y2=1.202
r350 112 113 3.28338 $w=3.67e-07 $l=2.5e-08 $layer=POLY_cond $X=2.845 $Y=1.202
+ $X2=2.87 $Y2=1.202
r351 111 112 61.7275 $w=3.67e-07 $l=4.7e-07 $layer=POLY_cond $X=2.375 $Y=1.202
+ $X2=2.845 $Y2=1.202
r352 110 111 3.28338 $w=3.67e-07 $l=2.5e-08 $layer=POLY_cond $X=2.35 $Y=1.202
+ $X2=2.375 $Y2=1.202
r353 109 110 55.1608 $w=3.67e-07 $l=4.2e-07 $layer=POLY_cond $X=1.93 $Y=1.202
+ $X2=2.35 $Y2=1.202
r354 108 109 3.28338 $w=3.67e-07 $l=2.5e-08 $layer=POLY_cond $X=1.905 $Y=1.202
+ $X2=1.93 $Y2=1.202
r355 107 108 61.7275 $w=3.67e-07 $l=4.7e-07 $layer=POLY_cond $X=1.435 $Y=1.202
+ $X2=1.905 $Y2=1.202
r356 106 107 3.28338 $w=3.67e-07 $l=2.5e-08 $layer=POLY_cond $X=1.41 $Y=1.202
+ $X2=1.435 $Y2=1.202
r357 105 106 55.1608 $w=3.67e-07 $l=4.2e-07 $layer=POLY_cond $X=0.99 $Y=1.202
+ $X2=1.41 $Y2=1.202
r358 104 105 3.28338 $w=3.67e-07 $l=2.5e-08 $layer=POLY_cond $X=0.965 $Y=1.202
+ $X2=0.99 $Y2=1.202
r359 102 104 53.1907 $w=3.67e-07 $l=4.05e-07 $layer=POLY_cond $X=0.56 $Y=1.202
+ $X2=0.965 $Y2=1.202
r360 102 103 13.8362 $w=1.7e-07 $l=1.785e-06 $layer=licon1_POLY $count=10
+ $X=0.56 $Y=1.16 $X2=0.56 $Y2=1.16
r361 100 102 8.53679 $w=3.67e-07 $l=6.5e-08 $layer=POLY_cond $X=0.495 $Y=1.202
+ $X2=0.56 $Y2=1.202
r362 99 100 3.28338 $w=3.67e-07 $l=2.5e-08 $layer=POLY_cond $X=0.47 $Y=1.202
+ $X2=0.495 $Y2=1.202
r363 97 134 147.257 $w=2.68e-07 $l=3.45e-06 $layer=LI1_cond $X=3.91 $Y=1.19
+ $X2=7.36 $Y2=1.19
r364 97 103 142.988 $w=2.68e-07 $l=3.35e-06 $layer=LI1_cond $X=3.91 $Y=1.19
+ $X2=0.56 $Y2=1.19
r365 94 136 23.77 $w=1.5e-07 $l=2.07e-07 $layer=POLY_cond $X=7.57 $Y=0.995
+ $X2=7.57 $Y2=1.202
r366 94 96 139.78 $w=1.5e-07 $l=4.35e-07 $layer=POLY_cond $X=7.57 $Y=0.995
+ $X2=7.57 $Y2=0.56
r367 91 135 19.4219 $w=1.8e-07 $l=2.08e-07 $layer=POLY_cond $X=7.545 $Y=1.41
+ $X2=7.545 $Y2=1.202
r368 91 93 153.972 $w=1.8e-07 $l=5.75e-07 $layer=POLY_cond $X=7.545 $Y=1.41
+ $X2=7.545 $Y2=1.985
r369 88 131 19.4219 $w=1.8e-07 $l=2.08e-07 $layer=POLY_cond $X=7.075 $Y=1.41
+ $X2=7.075 $Y2=1.202
r370 88 90 153.972 $w=1.8e-07 $l=5.75e-07 $layer=POLY_cond $X=7.075 $Y=1.41
+ $X2=7.075 $Y2=1.985
r371 85 130 23.77 $w=1.5e-07 $l=2.07e-07 $layer=POLY_cond $X=7.05 $Y=0.995
+ $X2=7.05 $Y2=1.202
r372 85 87 139.78 $w=1.5e-07 $l=4.35e-07 $layer=POLY_cond $X=7.05 $Y=0.995
+ $X2=7.05 $Y2=0.56
r373 82 129 23.77 $w=1.5e-07 $l=2.07e-07 $layer=POLY_cond $X=6.63 $Y=0.995
+ $X2=6.63 $Y2=1.202
r374 82 84 139.78 $w=1.5e-07 $l=4.35e-07 $layer=POLY_cond $X=6.63 $Y=0.995
+ $X2=6.63 $Y2=0.56
r375 79 128 19.4219 $w=1.8e-07 $l=2.08e-07 $layer=POLY_cond $X=6.605 $Y=1.41
+ $X2=6.605 $Y2=1.202
r376 79 81 153.972 $w=1.8e-07 $l=5.75e-07 $layer=POLY_cond $X=6.605 $Y=1.41
+ $X2=6.605 $Y2=1.985
r377 76 127 19.4219 $w=1.8e-07 $l=2.08e-07 $layer=POLY_cond $X=6.135 $Y=1.41
+ $X2=6.135 $Y2=1.202
r378 76 78 153.972 $w=1.8e-07 $l=5.75e-07 $layer=POLY_cond $X=6.135 $Y=1.41
+ $X2=6.135 $Y2=1.985
r379 73 126 23.77 $w=1.5e-07 $l=2.07e-07 $layer=POLY_cond $X=6.11 $Y=0.995
+ $X2=6.11 $Y2=1.202
r380 73 75 139.78 $w=1.5e-07 $l=4.35e-07 $layer=POLY_cond $X=6.11 $Y=0.995
+ $X2=6.11 $Y2=0.56
r381 70 125 23.77 $w=1.5e-07 $l=2.07e-07 $layer=POLY_cond $X=5.69 $Y=0.995
+ $X2=5.69 $Y2=1.202
r382 70 72 139.78 $w=1.5e-07 $l=4.35e-07 $layer=POLY_cond $X=5.69 $Y=0.995
+ $X2=5.69 $Y2=0.56
r383 67 124 19.4219 $w=1.8e-07 $l=2.08e-07 $layer=POLY_cond $X=5.665 $Y=1.41
+ $X2=5.665 $Y2=1.202
r384 67 69 153.972 $w=1.8e-07 $l=5.75e-07 $layer=POLY_cond $X=5.665 $Y=1.41
+ $X2=5.665 $Y2=1.985
r385 64 123 19.4219 $w=1.8e-07 $l=2.08e-07 $layer=POLY_cond $X=5.195 $Y=1.41
+ $X2=5.195 $Y2=1.202
r386 64 66 153.972 $w=1.8e-07 $l=5.75e-07 $layer=POLY_cond $X=5.195 $Y=1.41
+ $X2=5.195 $Y2=1.985
r387 61 122 23.77 $w=1.5e-07 $l=2.07e-07 $layer=POLY_cond $X=5.17 $Y=0.995
+ $X2=5.17 $Y2=1.202
r388 61 63 139.78 $w=1.5e-07 $l=4.35e-07 $layer=POLY_cond $X=5.17 $Y=0.995
+ $X2=5.17 $Y2=0.56
r389 58 121 23.77 $w=1.5e-07 $l=2.07e-07 $layer=POLY_cond $X=4.75 $Y=0.995
+ $X2=4.75 $Y2=1.202
r390 58 60 139.78 $w=1.5e-07 $l=4.35e-07 $layer=POLY_cond $X=4.75 $Y=0.995
+ $X2=4.75 $Y2=0.56
r391 55 120 19.4219 $w=1.8e-07 $l=2.08e-07 $layer=POLY_cond $X=4.725 $Y=1.41
+ $X2=4.725 $Y2=1.202
r392 55 57 153.972 $w=1.8e-07 $l=5.75e-07 $layer=POLY_cond $X=4.725 $Y=1.41
+ $X2=4.725 $Y2=1.985
r393 52 119 19.4219 $w=1.8e-07 $l=2.08e-07 $layer=POLY_cond $X=4.255 $Y=1.41
+ $X2=4.255 $Y2=1.202
r394 52 54 153.972 $w=1.8e-07 $l=5.75e-07 $layer=POLY_cond $X=4.255 $Y=1.41
+ $X2=4.255 $Y2=1.985
r395 49 118 23.77 $w=1.5e-07 $l=2.07e-07 $layer=POLY_cond $X=4.23 $Y=0.995
+ $X2=4.23 $Y2=1.202
r396 49 51 139.78 $w=1.5e-07 $l=4.35e-07 $layer=POLY_cond $X=4.23 $Y=0.995
+ $X2=4.23 $Y2=0.56
r397 46 117 23.77 $w=1.5e-07 $l=2.07e-07 $layer=POLY_cond $X=3.81 $Y=0.995
+ $X2=3.81 $Y2=1.202
r398 46 48 139.78 $w=1.5e-07 $l=4.35e-07 $layer=POLY_cond $X=3.81 $Y=0.995
+ $X2=3.81 $Y2=0.56
r399 43 116 19.4219 $w=1.8e-07 $l=2.08e-07 $layer=POLY_cond $X=3.785 $Y=1.41
+ $X2=3.785 $Y2=1.202
r400 43 45 153.972 $w=1.8e-07 $l=5.75e-07 $layer=POLY_cond $X=3.785 $Y=1.41
+ $X2=3.785 $Y2=1.985
r401 40 115 19.4219 $w=1.8e-07 $l=2.08e-07 $layer=POLY_cond $X=3.315 $Y=1.41
+ $X2=3.315 $Y2=1.202
r402 40 42 153.972 $w=1.8e-07 $l=5.75e-07 $layer=POLY_cond $X=3.315 $Y=1.41
+ $X2=3.315 $Y2=1.985
r403 37 114 23.77 $w=1.5e-07 $l=2.07e-07 $layer=POLY_cond $X=3.29 $Y=0.995
+ $X2=3.29 $Y2=1.202
r404 37 39 139.78 $w=1.5e-07 $l=4.35e-07 $layer=POLY_cond $X=3.29 $Y=0.995
+ $X2=3.29 $Y2=0.56
r405 34 113 23.77 $w=1.5e-07 $l=2.07e-07 $layer=POLY_cond $X=2.87 $Y=0.995
+ $X2=2.87 $Y2=1.202
r406 34 36 139.78 $w=1.5e-07 $l=4.35e-07 $layer=POLY_cond $X=2.87 $Y=0.995
+ $X2=2.87 $Y2=0.56
r407 31 112 19.4219 $w=1.8e-07 $l=2.08e-07 $layer=POLY_cond $X=2.845 $Y=1.41
+ $X2=2.845 $Y2=1.202
r408 31 33 153.972 $w=1.8e-07 $l=5.75e-07 $layer=POLY_cond $X=2.845 $Y=1.41
+ $X2=2.845 $Y2=1.985
r409 28 111 19.4219 $w=1.8e-07 $l=2.08e-07 $layer=POLY_cond $X=2.375 $Y=1.41
+ $X2=2.375 $Y2=1.202
r410 28 30 153.972 $w=1.8e-07 $l=5.75e-07 $layer=POLY_cond $X=2.375 $Y=1.41
+ $X2=2.375 $Y2=1.985
r411 25 110 23.77 $w=1.5e-07 $l=2.07e-07 $layer=POLY_cond $X=2.35 $Y=0.995
+ $X2=2.35 $Y2=1.202
r412 25 27 139.78 $w=1.5e-07 $l=4.35e-07 $layer=POLY_cond $X=2.35 $Y=0.995
+ $X2=2.35 $Y2=0.56
r413 22 109 23.77 $w=1.5e-07 $l=2.07e-07 $layer=POLY_cond $X=1.93 $Y=0.995
+ $X2=1.93 $Y2=1.202
r414 22 24 139.78 $w=1.5e-07 $l=4.35e-07 $layer=POLY_cond $X=1.93 $Y=0.995
+ $X2=1.93 $Y2=0.56
r415 19 108 19.4219 $w=1.8e-07 $l=2.08e-07 $layer=POLY_cond $X=1.905 $Y=1.41
+ $X2=1.905 $Y2=1.202
r416 19 21 153.972 $w=1.8e-07 $l=5.75e-07 $layer=POLY_cond $X=1.905 $Y=1.41
+ $X2=1.905 $Y2=1.985
r417 16 107 19.4219 $w=1.8e-07 $l=2.08e-07 $layer=POLY_cond $X=1.435 $Y=1.41
+ $X2=1.435 $Y2=1.202
r418 16 18 153.972 $w=1.8e-07 $l=5.75e-07 $layer=POLY_cond $X=1.435 $Y=1.41
+ $X2=1.435 $Y2=1.985
r419 13 106 23.77 $w=1.5e-07 $l=2.07e-07 $layer=POLY_cond $X=1.41 $Y=0.995
+ $X2=1.41 $Y2=1.202
r420 13 15 139.78 $w=1.5e-07 $l=4.35e-07 $layer=POLY_cond $X=1.41 $Y=0.995
+ $X2=1.41 $Y2=0.56
r421 10 105 23.77 $w=1.5e-07 $l=2.07e-07 $layer=POLY_cond $X=0.99 $Y=0.995
+ $X2=0.99 $Y2=1.202
r422 10 12 139.78 $w=1.5e-07 $l=4.35e-07 $layer=POLY_cond $X=0.99 $Y=0.995
+ $X2=0.99 $Y2=0.56
r423 7 104 19.4219 $w=1.8e-07 $l=2.08e-07 $layer=POLY_cond $X=0.965 $Y=1.41
+ $X2=0.965 $Y2=1.202
r424 7 9 153.972 $w=1.8e-07 $l=5.75e-07 $layer=POLY_cond $X=0.965 $Y=1.41
+ $X2=0.965 $Y2=1.985
r425 4 100 19.4219 $w=1.8e-07 $l=2.08e-07 $layer=POLY_cond $X=0.495 $Y=1.41
+ $X2=0.495 $Y2=1.202
r426 4 6 153.972 $w=1.8e-07 $l=5.75e-07 $layer=POLY_cond $X=0.495 $Y=1.41
+ $X2=0.495 $Y2=1.985
r427 1 99 23.77 $w=1.5e-07 $l=2.07e-07 $layer=POLY_cond $X=0.47 $Y=0.995
+ $X2=0.47 $Y2=1.202
r428 1 3 139.78 $w=1.5e-07 $l=4.35e-07 $layer=POLY_cond $X=0.47 $Y=0.995
+ $X2=0.47 $Y2=0.56
.ends

.subckt PM_SKY130_FD_SC_HDLL__NAND2_16%A 1 3 4 6 7 9 10 12 13 15 16 18 19 21 22
+ 24 25 27 28 30 31 33 34 36 37 39 40 42 43 45 46 48 49 51 52 54 55 57 58 60 61
+ 63 64 66 67 69 70 72 73 75 76 78 79 81 82 84 85 87 88 90 91 93 94 96 97 130
+ 135
r255 135 136 3.28338 $w=3.67e-07 $l=2.5e-08 $layer=POLY_cond $X=15.065 $Y=1.202
+ $X2=15.09 $Y2=1.202
r256 134 135 61.7275 $w=3.67e-07 $l=4.7e-07 $layer=POLY_cond $X=14.595 $Y=1.202
+ $X2=15.065 $Y2=1.202
r257 133 134 3.28338 $w=3.67e-07 $l=2.5e-08 $layer=POLY_cond $X=14.57 $Y=1.202
+ $X2=14.595 $Y2=1.202
r258 132 133 55.1608 $w=3.67e-07 $l=4.2e-07 $layer=POLY_cond $X=14.15 $Y=1.202
+ $X2=14.57 $Y2=1.202
r259 131 132 3.28338 $w=3.67e-07 $l=2.5e-08 $layer=POLY_cond $X=14.125 $Y=1.202
+ $X2=14.15 $Y2=1.202
r260 129 131 1.97003 $w=3.67e-07 $l=1.5e-08 $layer=POLY_cond $X=14.11 $Y=1.202
+ $X2=14.125 $Y2=1.202
r261 129 130 17.0918 $w=1.7e-07 $l=1.445e-06 $layer=licon1_POLY $count=8
+ $X=14.11 $Y=1.16 $X2=14.11 $Y2=1.16
r262 127 129 59.7575 $w=3.67e-07 $l=4.55e-07 $layer=POLY_cond $X=13.655 $Y=1.202
+ $X2=14.11 $Y2=1.202
r263 126 127 3.28338 $w=3.67e-07 $l=2.5e-08 $layer=POLY_cond $X=13.63 $Y=1.202
+ $X2=13.655 $Y2=1.202
r264 125 126 55.1608 $w=3.67e-07 $l=4.2e-07 $layer=POLY_cond $X=13.21 $Y=1.202
+ $X2=13.63 $Y2=1.202
r265 124 125 3.28338 $w=3.67e-07 $l=2.5e-08 $layer=POLY_cond $X=13.185 $Y=1.202
+ $X2=13.21 $Y2=1.202
r266 123 124 61.7275 $w=3.67e-07 $l=4.7e-07 $layer=POLY_cond $X=12.715 $Y=1.202
+ $X2=13.185 $Y2=1.202
r267 122 123 3.28338 $w=3.67e-07 $l=2.5e-08 $layer=POLY_cond $X=12.69 $Y=1.202
+ $X2=12.715 $Y2=1.202
r268 121 122 55.1608 $w=3.67e-07 $l=4.2e-07 $layer=POLY_cond $X=12.27 $Y=1.202
+ $X2=12.69 $Y2=1.202
r269 120 121 3.28338 $w=3.67e-07 $l=2.5e-08 $layer=POLY_cond $X=12.245 $Y=1.202
+ $X2=12.27 $Y2=1.202
r270 119 120 61.7275 $w=3.67e-07 $l=4.7e-07 $layer=POLY_cond $X=11.775 $Y=1.202
+ $X2=12.245 $Y2=1.202
r271 118 119 3.28338 $w=3.67e-07 $l=2.5e-08 $layer=POLY_cond $X=11.75 $Y=1.202
+ $X2=11.775 $Y2=1.202
r272 117 118 58.4441 $w=3.67e-07 $l=4.45e-07 $layer=POLY_cond $X=11.305 $Y=1.202
+ $X2=11.75 $Y2=1.202
r273 116 117 3.28338 $w=3.67e-07 $l=2.5e-08 $layer=POLY_cond $X=11.28 $Y=1.202
+ $X2=11.305 $Y2=1.202
r274 115 116 58.4441 $w=3.67e-07 $l=4.45e-07 $layer=POLY_cond $X=10.835 $Y=1.202
+ $X2=11.28 $Y2=1.202
r275 114 115 3.28338 $w=3.67e-07 $l=2.5e-08 $layer=POLY_cond $X=10.81 $Y=1.202
+ $X2=10.835 $Y2=1.202
r276 113 114 55.1608 $w=3.67e-07 $l=4.2e-07 $layer=POLY_cond $X=10.39 $Y=1.202
+ $X2=10.81 $Y2=1.202
r277 112 113 3.28338 $w=3.67e-07 $l=2.5e-08 $layer=POLY_cond $X=10.365 $Y=1.202
+ $X2=10.39 $Y2=1.202
r278 111 112 61.7275 $w=3.67e-07 $l=4.7e-07 $layer=POLY_cond $X=9.895 $Y=1.202
+ $X2=10.365 $Y2=1.202
r279 110 111 3.28338 $w=3.67e-07 $l=2.5e-08 $layer=POLY_cond $X=9.87 $Y=1.202
+ $X2=9.895 $Y2=1.202
r280 109 110 55.1608 $w=3.67e-07 $l=4.2e-07 $layer=POLY_cond $X=9.45 $Y=1.202
+ $X2=9.87 $Y2=1.202
r281 108 109 3.28338 $w=3.67e-07 $l=2.5e-08 $layer=POLY_cond $X=9.425 $Y=1.202
+ $X2=9.45 $Y2=1.202
r282 107 108 61.7275 $w=3.67e-07 $l=4.7e-07 $layer=POLY_cond $X=8.955 $Y=1.202
+ $X2=9.425 $Y2=1.202
r283 106 107 3.28338 $w=3.67e-07 $l=2.5e-08 $layer=POLY_cond $X=8.93 $Y=1.202
+ $X2=8.955 $Y2=1.202
r284 104 106 34.1471 $w=3.67e-07 $l=2.6e-07 $layer=POLY_cond $X=8.67 $Y=1.202
+ $X2=8.93 $Y2=1.202
r285 104 105 17.0918 $w=1.7e-07 $l=1.445e-06 $layer=licon1_POLY $count=8 $X=8.67
+ $Y=1.16 $X2=8.67 $Y2=1.16
r286 102 104 24.297 $w=3.67e-07 $l=1.85e-07 $layer=POLY_cond $X=8.485 $Y=1.202
+ $X2=8.67 $Y2=1.202
r287 101 102 3.28338 $w=3.67e-07 $l=2.5e-08 $layer=POLY_cond $X=8.46 $Y=1.202
+ $X2=8.485 $Y2=1.202
r288 100 101 58.4441 $w=3.67e-07 $l=4.45e-07 $layer=POLY_cond $X=8.015 $Y=1.202
+ $X2=8.46 $Y2=1.202
r289 99 100 3.28338 $w=3.67e-07 $l=2.5e-08 $layer=POLY_cond $X=7.99 $Y=1.202
+ $X2=8.015 $Y2=1.202
r290 97 130 121.22 $w=2.68e-07 $l=2.84e-06 $layer=LI1_cond $X=11.27 $Y=1.19
+ $X2=14.11 $Y2=1.19
r291 97 105 110.976 $w=2.68e-07 $l=2.6e-06 $layer=LI1_cond $X=11.27 $Y=1.19
+ $X2=8.67 $Y2=1.19
r292 94 136 23.77 $w=1.5e-07 $l=2.07e-07 $layer=POLY_cond $X=15.09 $Y=0.995
+ $X2=15.09 $Y2=1.202
r293 94 96 139.78 $w=1.5e-07 $l=4.35e-07 $layer=POLY_cond $X=15.09 $Y=0.995
+ $X2=15.09 $Y2=0.56
r294 91 135 19.4219 $w=1.8e-07 $l=2.08e-07 $layer=POLY_cond $X=15.065 $Y=1.41
+ $X2=15.065 $Y2=1.202
r295 91 93 153.972 $w=1.8e-07 $l=5.75e-07 $layer=POLY_cond $X=15.065 $Y=1.41
+ $X2=15.065 $Y2=1.985
r296 88 134 19.4219 $w=1.8e-07 $l=2.08e-07 $layer=POLY_cond $X=14.595 $Y=1.41
+ $X2=14.595 $Y2=1.202
r297 88 90 153.972 $w=1.8e-07 $l=5.75e-07 $layer=POLY_cond $X=14.595 $Y=1.41
+ $X2=14.595 $Y2=1.985
r298 85 133 23.77 $w=1.5e-07 $l=2.07e-07 $layer=POLY_cond $X=14.57 $Y=0.995
+ $X2=14.57 $Y2=1.202
r299 85 87 139.78 $w=1.5e-07 $l=4.35e-07 $layer=POLY_cond $X=14.57 $Y=0.995
+ $X2=14.57 $Y2=0.56
r300 82 132 23.77 $w=1.5e-07 $l=2.07e-07 $layer=POLY_cond $X=14.15 $Y=0.995
+ $X2=14.15 $Y2=1.202
r301 82 84 139.78 $w=1.5e-07 $l=4.35e-07 $layer=POLY_cond $X=14.15 $Y=0.995
+ $X2=14.15 $Y2=0.56
r302 79 131 19.4219 $w=1.8e-07 $l=2.08e-07 $layer=POLY_cond $X=14.125 $Y=1.41
+ $X2=14.125 $Y2=1.202
r303 79 81 153.972 $w=1.8e-07 $l=5.75e-07 $layer=POLY_cond $X=14.125 $Y=1.41
+ $X2=14.125 $Y2=1.985
r304 76 127 19.4219 $w=1.8e-07 $l=2.08e-07 $layer=POLY_cond $X=13.655 $Y=1.41
+ $X2=13.655 $Y2=1.202
r305 76 78 153.972 $w=1.8e-07 $l=5.75e-07 $layer=POLY_cond $X=13.655 $Y=1.41
+ $X2=13.655 $Y2=1.985
r306 73 126 23.77 $w=1.5e-07 $l=2.07e-07 $layer=POLY_cond $X=13.63 $Y=0.995
+ $X2=13.63 $Y2=1.202
r307 73 75 139.78 $w=1.5e-07 $l=4.35e-07 $layer=POLY_cond $X=13.63 $Y=0.995
+ $X2=13.63 $Y2=0.56
r308 70 125 23.77 $w=1.5e-07 $l=2.07e-07 $layer=POLY_cond $X=13.21 $Y=0.995
+ $X2=13.21 $Y2=1.202
r309 70 72 139.78 $w=1.5e-07 $l=4.35e-07 $layer=POLY_cond $X=13.21 $Y=0.995
+ $X2=13.21 $Y2=0.56
r310 67 124 19.4219 $w=1.8e-07 $l=2.08e-07 $layer=POLY_cond $X=13.185 $Y=1.41
+ $X2=13.185 $Y2=1.202
r311 67 69 153.972 $w=1.8e-07 $l=5.75e-07 $layer=POLY_cond $X=13.185 $Y=1.41
+ $X2=13.185 $Y2=1.985
r312 64 123 19.4219 $w=1.8e-07 $l=2.08e-07 $layer=POLY_cond $X=12.715 $Y=1.41
+ $X2=12.715 $Y2=1.202
r313 64 66 153.972 $w=1.8e-07 $l=5.75e-07 $layer=POLY_cond $X=12.715 $Y=1.41
+ $X2=12.715 $Y2=1.985
r314 61 122 23.77 $w=1.5e-07 $l=2.07e-07 $layer=POLY_cond $X=12.69 $Y=0.995
+ $X2=12.69 $Y2=1.202
r315 61 63 139.78 $w=1.5e-07 $l=4.35e-07 $layer=POLY_cond $X=12.69 $Y=0.995
+ $X2=12.69 $Y2=0.56
r316 58 121 23.77 $w=1.5e-07 $l=2.07e-07 $layer=POLY_cond $X=12.27 $Y=0.995
+ $X2=12.27 $Y2=1.202
r317 58 60 139.78 $w=1.5e-07 $l=4.35e-07 $layer=POLY_cond $X=12.27 $Y=0.995
+ $X2=12.27 $Y2=0.56
r318 55 120 19.4219 $w=1.8e-07 $l=2.08e-07 $layer=POLY_cond $X=12.245 $Y=1.41
+ $X2=12.245 $Y2=1.202
r319 55 57 153.972 $w=1.8e-07 $l=5.75e-07 $layer=POLY_cond $X=12.245 $Y=1.41
+ $X2=12.245 $Y2=1.985
r320 52 119 19.4219 $w=1.8e-07 $l=2.08e-07 $layer=POLY_cond $X=11.775 $Y=1.41
+ $X2=11.775 $Y2=1.202
r321 52 54 153.972 $w=1.8e-07 $l=5.75e-07 $layer=POLY_cond $X=11.775 $Y=1.41
+ $X2=11.775 $Y2=1.985
r322 49 118 23.77 $w=1.5e-07 $l=2.07e-07 $layer=POLY_cond $X=11.75 $Y=0.995
+ $X2=11.75 $Y2=1.202
r323 49 51 139.78 $w=1.5e-07 $l=4.35e-07 $layer=POLY_cond $X=11.75 $Y=0.995
+ $X2=11.75 $Y2=0.56
r324 46 117 19.4219 $w=1.8e-07 $l=2.08e-07 $layer=POLY_cond $X=11.305 $Y=1.41
+ $X2=11.305 $Y2=1.202
r325 46 48 153.972 $w=1.8e-07 $l=5.75e-07 $layer=POLY_cond $X=11.305 $Y=1.41
+ $X2=11.305 $Y2=1.985
r326 43 116 23.77 $w=1.5e-07 $l=2.07e-07 $layer=POLY_cond $X=11.28 $Y=0.995
+ $X2=11.28 $Y2=1.202
r327 43 45 139.78 $w=1.5e-07 $l=4.35e-07 $layer=POLY_cond $X=11.28 $Y=0.995
+ $X2=11.28 $Y2=0.56
r328 40 115 19.4219 $w=1.8e-07 $l=2.08e-07 $layer=POLY_cond $X=10.835 $Y=1.41
+ $X2=10.835 $Y2=1.202
r329 40 42 153.972 $w=1.8e-07 $l=5.75e-07 $layer=POLY_cond $X=10.835 $Y=1.41
+ $X2=10.835 $Y2=1.985
r330 37 114 23.77 $w=1.5e-07 $l=2.07e-07 $layer=POLY_cond $X=10.81 $Y=0.995
+ $X2=10.81 $Y2=1.202
r331 37 39 139.78 $w=1.5e-07 $l=4.35e-07 $layer=POLY_cond $X=10.81 $Y=0.995
+ $X2=10.81 $Y2=0.56
r332 34 113 23.77 $w=1.5e-07 $l=2.07e-07 $layer=POLY_cond $X=10.39 $Y=0.995
+ $X2=10.39 $Y2=1.202
r333 34 36 139.78 $w=1.5e-07 $l=4.35e-07 $layer=POLY_cond $X=10.39 $Y=0.995
+ $X2=10.39 $Y2=0.56
r334 31 112 19.4219 $w=1.8e-07 $l=2.08e-07 $layer=POLY_cond $X=10.365 $Y=1.41
+ $X2=10.365 $Y2=1.202
r335 31 33 153.972 $w=1.8e-07 $l=5.75e-07 $layer=POLY_cond $X=10.365 $Y=1.41
+ $X2=10.365 $Y2=1.985
r336 28 111 19.4219 $w=1.8e-07 $l=2.08e-07 $layer=POLY_cond $X=9.895 $Y=1.41
+ $X2=9.895 $Y2=1.202
r337 28 30 153.972 $w=1.8e-07 $l=5.75e-07 $layer=POLY_cond $X=9.895 $Y=1.41
+ $X2=9.895 $Y2=1.985
r338 25 110 23.77 $w=1.5e-07 $l=2.07e-07 $layer=POLY_cond $X=9.87 $Y=0.995
+ $X2=9.87 $Y2=1.202
r339 25 27 139.78 $w=1.5e-07 $l=4.35e-07 $layer=POLY_cond $X=9.87 $Y=0.995
+ $X2=9.87 $Y2=0.56
r340 22 109 23.77 $w=1.5e-07 $l=2.07e-07 $layer=POLY_cond $X=9.45 $Y=0.995
+ $X2=9.45 $Y2=1.202
r341 22 24 139.78 $w=1.5e-07 $l=4.35e-07 $layer=POLY_cond $X=9.45 $Y=0.995
+ $X2=9.45 $Y2=0.56
r342 19 108 19.4219 $w=1.8e-07 $l=2.08e-07 $layer=POLY_cond $X=9.425 $Y=1.41
+ $X2=9.425 $Y2=1.202
r343 19 21 153.972 $w=1.8e-07 $l=5.75e-07 $layer=POLY_cond $X=9.425 $Y=1.41
+ $X2=9.425 $Y2=1.985
r344 16 107 19.4219 $w=1.8e-07 $l=2.08e-07 $layer=POLY_cond $X=8.955 $Y=1.41
+ $X2=8.955 $Y2=1.202
r345 16 18 153.972 $w=1.8e-07 $l=5.75e-07 $layer=POLY_cond $X=8.955 $Y=1.41
+ $X2=8.955 $Y2=1.985
r346 13 106 23.77 $w=1.5e-07 $l=2.07e-07 $layer=POLY_cond $X=8.93 $Y=0.995
+ $X2=8.93 $Y2=1.202
r347 13 15 139.78 $w=1.5e-07 $l=4.35e-07 $layer=POLY_cond $X=8.93 $Y=0.995
+ $X2=8.93 $Y2=0.56
r348 10 102 19.4219 $w=1.8e-07 $l=2.08e-07 $layer=POLY_cond $X=8.485 $Y=1.41
+ $X2=8.485 $Y2=1.202
r349 10 12 153.972 $w=1.8e-07 $l=5.75e-07 $layer=POLY_cond $X=8.485 $Y=1.41
+ $X2=8.485 $Y2=1.985
r350 7 101 23.77 $w=1.5e-07 $l=2.07e-07 $layer=POLY_cond $X=8.46 $Y=0.995
+ $X2=8.46 $Y2=1.202
r351 7 9 139.78 $w=1.5e-07 $l=4.35e-07 $layer=POLY_cond $X=8.46 $Y=0.995
+ $X2=8.46 $Y2=0.56
r352 4 100 19.4219 $w=1.8e-07 $l=2.08e-07 $layer=POLY_cond $X=8.015 $Y=1.41
+ $X2=8.015 $Y2=1.202
r353 4 6 153.972 $w=1.8e-07 $l=5.75e-07 $layer=POLY_cond $X=8.015 $Y=1.41
+ $X2=8.015 $Y2=1.985
r354 1 99 23.77 $w=1.5e-07 $l=2.07e-07 $layer=POLY_cond $X=7.99 $Y=0.995
+ $X2=7.99 $Y2=1.202
r355 1 3 139.78 $w=1.5e-07 $l=4.35e-07 $layer=POLY_cond $X=7.99 $Y=0.995
+ $X2=7.99 $Y2=0.56
.ends

.subckt PM_SKY130_FD_SC_HDLL__NAND2_16%VPWR 1 2 3 4 5 6 7 8 9 10 11 12 13 14 15
+ 16 17 52 54 60 62 66 68 72 74 78 80 84 88 92 96 100 104 108 112 116 120 124
+ 126 128 133 134 136 137 139 140 142 143 145 146 148 149 151 152 154 155 157
+ 158 160 161 162 164 200 208 211 214 217 220 224
r228 223 224 9.3 $w=1.7e-07 $l=1.7e-07 $layer=mcon $count=1 $X=15.41 $Y=2.72
+ $X2=15.41 $Y2=2.72
r229 220 221 4.65 $w=1.7e-07 $l=3.4e-07 $layer=mcon $count=2 $X=4.83 $Y=2.72
+ $X2=4.83 $Y2=2.72
r230 218 221 0.261778 $w=4.8e-07 $l=9.2e-07 $layer=MET1_cond $X=3.91 $Y=2.72
+ $X2=4.83 $Y2=2.72
r231 217 218 4.65 $w=1.7e-07 $l=3.4e-07 $layer=mcon $count=2 $X=3.91 $Y=2.72
+ $X2=3.91 $Y2=2.72
r232 215 218 0.261778 $w=4.8e-07 $l=9.2e-07 $layer=MET1_cond $X=2.99 $Y=2.72
+ $X2=3.91 $Y2=2.72
r233 214 215 4.65 $w=1.7e-07 $l=3.4e-07 $layer=mcon $count=2 $X=2.99 $Y=2.72
+ $X2=2.99 $Y2=2.72
r234 212 215 0.261778 $w=4.8e-07 $l=9.2e-07 $layer=MET1_cond $X=2.07 $Y=2.72
+ $X2=2.99 $Y2=2.72
r235 211 212 4.65 $w=1.7e-07 $l=3.4e-07 $layer=mcon $count=2 $X=2.07 $Y=2.72
+ $X2=2.07 $Y2=2.72
r236 209 212 0.261778 $w=4.8e-07 $l=9.2e-07 $layer=MET1_cond $X=1.15 $Y=2.72
+ $X2=2.07 $Y2=2.72
r237 208 209 9.3 $w=1.7e-07 $l=1.7e-07 $layer=mcon $count=1 $X=1.15 $Y=2.72
+ $X2=1.15 $Y2=2.72
r238 203 224 0.130889 $w=4.8e-07 $l=4.6e-07 $layer=MET1_cond $X=14.95 $Y=2.72
+ $X2=15.41 $Y2=2.72
r239 202 203 4.65 $w=1.7e-07 $l=3.4e-07 $layer=mcon $count=2 $X=14.95 $Y=2.72
+ $X2=14.95 $Y2=2.72
r240 200 223 4.07187 $w=1.7e-07 $l=2.37e-07 $layer=LI1_cond $X=15.165 $Y=2.72
+ $X2=15.402 $Y2=2.72
r241 200 202 14.0267 $w=1.68e-07 $l=2.15e-07 $layer=LI1_cond $X=15.165 $Y=2.72
+ $X2=14.95 $Y2=2.72
r242 199 203 0.261778 $w=4.8e-07 $l=9.2e-07 $layer=MET1_cond $X=14.03 $Y=2.72
+ $X2=14.95 $Y2=2.72
r243 198 199 4.65 $w=1.7e-07 $l=3.4e-07 $layer=mcon $count=2 $X=14.03 $Y=2.72
+ $X2=14.03 $Y2=2.72
r244 196 199 0.261778 $w=4.8e-07 $l=9.2e-07 $layer=MET1_cond $X=13.11 $Y=2.72
+ $X2=14.03 $Y2=2.72
r245 195 196 4.65 $w=1.7e-07 $l=3.4e-07 $layer=mcon $count=2 $X=13.11 $Y=2.72
+ $X2=13.11 $Y2=2.72
r246 193 196 0.261778 $w=4.8e-07 $l=9.2e-07 $layer=MET1_cond $X=12.19 $Y=2.72
+ $X2=13.11 $Y2=2.72
r247 192 193 4.65 $w=1.7e-07 $l=3.4e-07 $layer=mcon $count=2 $X=12.19 $Y=2.72
+ $X2=12.19 $Y2=2.72
r248 190 193 0.261778 $w=4.8e-07 $l=9.2e-07 $layer=MET1_cond $X=11.27 $Y=2.72
+ $X2=12.19 $Y2=2.72
r249 189 190 4.65 $w=1.7e-07 $l=3.4e-07 $layer=mcon $count=2 $X=11.27 $Y=2.72
+ $X2=11.27 $Y2=2.72
r250 187 190 0.261778 $w=4.8e-07 $l=9.2e-07 $layer=MET1_cond $X=10.35 $Y=2.72
+ $X2=11.27 $Y2=2.72
r251 186 187 4.65 $w=1.7e-07 $l=3.4e-07 $layer=mcon $count=2 $X=10.35 $Y=2.72
+ $X2=10.35 $Y2=2.72
r252 184 187 0.261778 $w=4.8e-07 $l=9.2e-07 $layer=MET1_cond $X=9.43 $Y=2.72
+ $X2=10.35 $Y2=2.72
r253 183 184 4.65 $w=1.7e-07 $l=3.4e-07 $layer=mcon $count=2 $X=9.43 $Y=2.72
+ $X2=9.43 $Y2=2.72
r254 181 184 0.261778 $w=4.8e-07 $l=9.2e-07 $layer=MET1_cond $X=8.51 $Y=2.72
+ $X2=9.43 $Y2=2.72
r255 180 181 4.65 $w=1.7e-07 $l=3.4e-07 $layer=mcon $count=2 $X=8.51 $Y=2.72
+ $X2=8.51 $Y2=2.72
r256 178 181 0.261778 $w=4.8e-07 $l=9.2e-07 $layer=MET1_cond $X=7.59 $Y=2.72
+ $X2=8.51 $Y2=2.72
r257 177 178 4.65 $w=1.7e-07 $l=3.4e-07 $layer=mcon $count=2 $X=7.59 $Y=2.72
+ $X2=7.59 $Y2=2.72
r258 175 178 0.261778 $w=4.8e-07 $l=9.2e-07 $layer=MET1_cond $X=6.67 $Y=2.72
+ $X2=7.59 $Y2=2.72
r259 174 175 4.65 $w=1.7e-07 $l=3.4e-07 $layer=mcon $count=2 $X=6.67 $Y=2.72
+ $X2=6.67 $Y2=2.72
r260 172 175 0.261778 $w=4.8e-07 $l=9.2e-07 $layer=MET1_cond $X=5.75 $Y=2.72
+ $X2=6.67 $Y2=2.72
r261 172 221 0.261778 $w=4.8e-07 $l=9.2e-07 $layer=MET1_cond $X=5.75 $Y=2.72
+ $X2=4.83 $Y2=2.72
r262 171 172 4.65 $w=1.7e-07 $l=3.4e-07 $layer=mcon $count=2 $X=5.75 $Y=2.72
+ $X2=5.75 $Y2=2.72
r263 169 220 7.44763 $w=1.7e-07 $l=1.35e-07 $layer=LI1_cond $X=5.095 $Y=2.72
+ $X2=4.96 $Y2=2.72
r264 169 171 42.7326 $w=1.68e-07 $l=6.55e-07 $layer=LI1_cond $X=5.095 $Y=2.72
+ $X2=5.75 $Y2=2.72
r265 168 209 0.130889 $w=4.8e-07 $l=4.6e-07 $layer=MET1_cond $X=0.69 $Y=2.72
+ $X2=1.15 $Y2=2.72
r266 167 168 9.3 $w=1.7e-07 $l=1.7e-07 $layer=mcon $count=1 $X=0.69 $Y=2.72
+ $X2=0.69 $Y2=2.72
r267 165 205 4.1687 $w=1.7e-07 $l=1.98e-07 $layer=LI1_cond $X=0.395 $Y=2.72
+ $X2=0.197 $Y2=2.72
r268 165 167 19.246 $w=1.68e-07 $l=2.95e-07 $layer=LI1_cond $X=0.395 $Y=2.72
+ $X2=0.69 $Y2=2.72
r269 164 208 7.44763 $w=1.7e-07 $l=1.35e-07 $layer=LI1_cond $X=1.065 $Y=2.72
+ $X2=1.2 $Y2=2.72
r270 164 167 24.4652 $w=1.68e-07 $l=3.75e-07 $layer=LI1_cond $X=1.065 $Y=2.72
+ $X2=0.69 $Y2=2.72
r271 162 168 0.130889 $w=4.8e-07 $l=4.6e-07 $layer=MET1_cond $X=0.23 $Y=2.72
+ $X2=0.69 $Y2=2.72
r272 162 205 9.3 $w=1.7e-07 $l=1.7e-07 $layer=mcon $count=1 $X=0.23 $Y=2.72
+ $X2=0.23 $Y2=2.72
r273 160 198 12.7219 $w=1.68e-07 $l=1.95e-07 $layer=LI1_cond $X=14.225 $Y=2.72
+ $X2=14.03 $Y2=2.72
r274 160 161 7.44763 $w=1.7e-07 $l=1.35e-07 $layer=LI1_cond $X=14.225 $Y=2.72
+ $X2=14.36 $Y2=2.72
r275 159 202 29.6845 $w=1.68e-07 $l=4.55e-07 $layer=LI1_cond $X=14.495 $Y=2.72
+ $X2=14.95 $Y2=2.72
r276 159 161 7.44763 $w=1.7e-07 $l=1.35e-07 $layer=LI1_cond $X=14.495 $Y=2.72
+ $X2=14.36 $Y2=2.72
r277 157 195 11.4171 $w=1.68e-07 $l=1.75e-07 $layer=LI1_cond $X=13.285 $Y=2.72
+ $X2=13.11 $Y2=2.72
r278 157 158 7.44763 $w=1.7e-07 $l=1.35e-07 $layer=LI1_cond $X=13.285 $Y=2.72
+ $X2=13.42 $Y2=2.72
r279 156 198 30.9893 $w=1.68e-07 $l=4.75e-07 $layer=LI1_cond $X=13.555 $Y=2.72
+ $X2=14.03 $Y2=2.72
r280 156 158 7.44763 $w=1.7e-07 $l=1.35e-07 $layer=LI1_cond $X=13.555 $Y=2.72
+ $X2=13.42 $Y2=2.72
r281 154 192 10.1123 $w=1.68e-07 $l=1.55e-07 $layer=LI1_cond $X=12.345 $Y=2.72
+ $X2=12.19 $Y2=2.72
r282 154 155 7.44763 $w=1.7e-07 $l=1.35e-07 $layer=LI1_cond $X=12.345 $Y=2.72
+ $X2=12.48 $Y2=2.72
r283 153 195 32.2941 $w=1.68e-07 $l=4.95e-07 $layer=LI1_cond $X=12.615 $Y=2.72
+ $X2=13.11 $Y2=2.72
r284 153 155 7.44763 $w=1.7e-07 $l=1.35e-07 $layer=LI1_cond $X=12.615 $Y=2.72
+ $X2=12.48 $Y2=2.72
r285 151 189 8.80749 $w=1.68e-07 $l=1.35e-07 $layer=LI1_cond $X=11.405 $Y=2.72
+ $X2=11.27 $Y2=2.72
r286 151 152 7.44763 $w=1.7e-07 $l=1.35e-07 $layer=LI1_cond $X=11.405 $Y=2.72
+ $X2=11.54 $Y2=2.72
r287 150 192 33.5989 $w=1.68e-07 $l=5.15e-07 $layer=LI1_cond $X=11.675 $Y=2.72
+ $X2=12.19 $Y2=2.72
r288 150 152 7.44763 $w=1.7e-07 $l=1.35e-07 $layer=LI1_cond $X=11.675 $Y=2.72
+ $X2=11.54 $Y2=2.72
r289 148 186 7.50267 $w=1.68e-07 $l=1.15e-07 $layer=LI1_cond $X=10.465 $Y=2.72
+ $X2=10.35 $Y2=2.72
r290 148 149 7.44763 $w=1.7e-07 $l=1.35e-07 $layer=LI1_cond $X=10.465 $Y=2.72
+ $X2=10.6 $Y2=2.72
r291 147 189 34.9037 $w=1.68e-07 $l=5.35e-07 $layer=LI1_cond $X=10.735 $Y=2.72
+ $X2=11.27 $Y2=2.72
r292 147 149 7.44763 $w=1.7e-07 $l=1.35e-07 $layer=LI1_cond $X=10.735 $Y=2.72
+ $X2=10.6 $Y2=2.72
r293 145 183 6.19786 $w=1.68e-07 $l=9.5e-08 $layer=LI1_cond $X=9.525 $Y=2.72
+ $X2=9.43 $Y2=2.72
r294 145 146 7.44763 $w=1.7e-07 $l=1.35e-07 $layer=LI1_cond $X=9.525 $Y=2.72
+ $X2=9.66 $Y2=2.72
r295 144 186 36.2086 $w=1.68e-07 $l=5.55e-07 $layer=LI1_cond $X=9.795 $Y=2.72
+ $X2=10.35 $Y2=2.72
r296 144 146 7.44763 $w=1.7e-07 $l=1.35e-07 $layer=LI1_cond $X=9.795 $Y=2.72
+ $X2=9.66 $Y2=2.72
r297 142 180 4.89305 $w=1.68e-07 $l=7.5e-08 $layer=LI1_cond $X=8.585 $Y=2.72
+ $X2=8.51 $Y2=2.72
r298 142 143 7.44763 $w=1.7e-07 $l=1.35e-07 $layer=LI1_cond $X=8.585 $Y=2.72
+ $X2=8.72 $Y2=2.72
r299 141 183 37.5134 $w=1.68e-07 $l=5.75e-07 $layer=LI1_cond $X=8.855 $Y=2.72
+ $X2=9.43 $Y2=2.72
r300 141 143 7.44763 $w=1.7e-07 $l=1.35e-07 $layer=LI1_cond $X=8.855 $Y=2.72
+ $X2=8.72 $Y2=2.72
r301 139 177 3.58824 $w=1.68e-07 $l=5.5e-08 $layer=LI1_cond $X=7.645 $Y=2.72
+ $X2=7.59 $Y2=2.72
r302 139 140 7.44763 $w=1.7e-07 $l=1.35e-07 $layer=LI1_cond $X=7.645 $Y=2.72
+ $X2=7.78 $Y2=2.72
r303 138 180 38.8182 $w=1.68e-07 $l=5.95e-07 $layer=LI1_cond $X=7.915 $Y=2.72
+ $X2=8.51 $Y2=2.72
r304 138 140 7.44763 $w=1.7e-07 $l=1.35e-07 $layer=LI1_cond $X=7.915 $Y=2.72
+ $X2=7.78 $Y2=2.72
r305 136 174 2.28342 $w=1.68e-07 $l=3.5e-08 $layer=LI1_cond $X=6.705 $Y=2.72
+ $X2=6.67 $Y2=2.72
r306 136 137 7.44763 $w=1.7e-07 $l=1.35e-07 $layer=LI1_cond $X=6.705 $Y=2.72
+ $X2=6.84 $Y2=2.72
r307 135 177 40.123 $w=1.68e-07 $l=6.15e-07 $layer=LI1_cond $X=6.975 $Y=2.72
+ $X2=7.59 $Y2=2.72
r308 135 137 7.44763 $w=1.7e-07 $l=1.35e-07 $layer=LI1_cond $X=6.975 $Y=2.72
+ $X2=6.84 $Y2=2.72
r309 133 171 0.97861 $w=1.68e-07 $l=1.5e-08 $layer=LI1_cond $X=5.765 $Y=2.72
+ $X2=5.75 $Y2=2.72
r310 133 134 7.44763 $w=1.7e-07 $l=1.35e-07 $layer=LI1_cond $X=5.765 $Y=2.72
+ $X2=5.9 $Y2=2.72
r311 132 174 41.4278 $w=1.68e-07 $l=6.35e-07 $layer=LI1_cond $X=6.035 $Y=2.72
+ $X2=6.67 $Y2=2.72
r312 132 134 7.44763 $w=1.7e-07 $l=1.35e-07 $layer=LI1_cond $X=6.035 $Y=2.72
+ $X2=5.9 $Y2=2.72
r313 128 131 29.0245 $w=2.68e-07 $l=6.8e-07 $layer=LI1_cond $X=15.3 $Y=1.66
+ $X2=15.3 $Y2=2.34
r314 126 223 3.21282 $w=2.7e-07 $l=1.38109e-07 $layer=LI1_cond $X=15.3 $Y=2.635
+ $X2=15.402 $Y2=2.72
r315 126 131 12.5915 $w=2.68e-07 $l=2.95e-07 $layer=LI1_cond $X=15.3 $Y=2.635
+ $X2=15.3 $Y2=2.34
r316 122 161 0.256868 $w=2.7e-07 $l=8.5e-08 $layer=LI1_cond $X=14.36 $Y=2.635
+ $X2=14.36 $Y2=2.72
r317 122 124 27.1038 $w=2.68e-07 $l=6.35e-07 $layer=LI1_cond $X=14.36 $Y=2.635
+ $X2=14.36 $Y2=2
r318 118 158 0.256868 $w=2.7e-07 $l=8.5e-08 $layer=LI1_cond $X=13.42 $Y=2.635
+ $X2=13.42 $Y2=2.72
r319 118 120 27.1038 $w=2.68e-07 $l=6.35e-07 $layer=LI1_cond $X=13.42 $Y=2.635
+ $X2=13.42 $Y2=2