* File: sky130_fd_sc_hdll__sdfrtp_4.pex.spice
* Created: Wed Sep  2 08:51:20 2020
* Program "Calibre xRC"
* Version "v2018.4_34.26"
* Nominal Temperature: 27C
* Circuit Temperature: 27C
* 
.subckt PM_SKY130_FD_SC_HDLL__SDFRTP_4%CLK 1 3 4 6 7 8 14
r31 14 15 3.20479 $w=3.76e-07 $l=2.5e-08 $layer=POLY_cond $X=0.495 $Y=1.202
+ $X2=0.52 $Y2=1.202
r32 12 14 32.6888 $w=3.76e-07 $l=2.55e-07 $layer=POLY_cond $X=0.24 $Y=1.202
+ $X2=0.495 $Y2=1.202
r33 8 12 145.28 $w=1.7e-07 $l=1.7e-07 $layer=licon1_POLY $count=1 $X=0.24
+ $Y=1.16 $X2=0.24 $Y2=1.16
r34 7 8 12.183 $w=3.48e-07 $l=3.7e-07 $layer=LI1_cond $X=0.315 $Y=1.53 $X2=0.315
+ $Y2=1.16
r35 4 15 24.356 $w=1.5e-07 $l=2.07e-07 $layer=POLY_cond $X=0.52 $Y=0.995
+ $X2=0.52 $Y2=1.202
r36 4 6 139.78 $w=1.5e-07 $l=4.35e-07 $layer=POLY_cond $X=0.52 $Y=0.995 $X2=0.52
+ $Y2=0.56
r37 1 14 19.9938 $w=1.8e-07 $l=2.08e-07 $layer=POLY_cond $X=0.495 $Y=1.41
+ $X2=0.495 $Y2=1.202
r38 1 3 153.972 $w=1.8e-07 $l=5.75e-07 $layer=POLY_cond $X=0.495 $Y=1.41
+ $X2=0.495 $Y2=1.985
.ends

.subckt PM_SKY130_FD_SC_HDLL__SDFRTP_4%A_27_47# 1 2 7 9 10 12 15 16 17 19 21 23
+ 24 26 28 29 31 34 38 39 45 47 48 49 54 56 57 58 59 60 67 69 73 74 77 79 81 91
c268 77 0 1.2887e-19 $X=0.94 $Y=1.16
c269 74 0 9.11424e-20 $X=9.32 $Y=1.11
c270 69 0 6.17614e-20 $X=9.32 $Y=1.19
c271 49 0 5.54695e-20 $X=0.71 $Y=1.88
c272 28 0 5.91276e-20 $X=9.185 $Y=1.89
c273 17 0 1.63397e-19 $X=6.43 $Y=1.32
c274 16 0 1.28412e-19 $X=5.72 $Y=0.745
r275 79 82 16.4869 $w=3.15e-07 $l=9e-08 $layer=POLY_cond $X=5.562 $Y=1.23
+ $X2=5.562 $Y2=1.32
r276 79 81 46.135 $w=3.15e-07 $l=1.65e-07 $layer=POLY_cond $X=5.562 $Y=1.23
+ $X2=5.562 $Y2=1.065
r277 77 92 7.44021 $w=3.13e-07 $l=1.65e-07 $layer=LI1_cond $X=0.867 $Y=1.16
+ $X2=0.867 $Y2=1.325
r278 77 91 8.29536 $w=3.13e-07 $l=1.65e-07 $layer=LI1_cond $X=0.867 $Y=1.16
+ $X2=0.867 $Y2=0.995
r279 76 77 145.28 $w=1.7e-07 $l=1.7e-07 $layer=licon1_POLY $count=1 $X=0.94
+ $Y=1.16 $X2=0.94 $Y2=1.16
r280 73 74 145.28 $w=1.7e-07 $l=1.7e-07 $layer=licon1_POLY $count=1 $X=9.32
+ $Y=1.11 $X2=9.32 $Y2=1.11
r281 69 74 9.3 $w=1.7e-07 $l=1.7e-07 $layer=mcon $count=1 $X=9.32 $Y=1.19
+ $X2=9.32 $Y2=1.19
r282 67 79 145.28 $w=1.7e-07 $l=1.7e-07 $layer=licon1_POLY $count=1 $X=5.565
+ $Y=1.23 $X2=5.565 $Y2=1.23
r283 66 67 9.3 $w=1.7e-07 $l=1.7e-07 $layer=mcon $count=1 $X=5.565 $Y=1.19
+ $X2=5.565 $Y2=1.19
r284 62 77 9.3 $w=1.7e-07 $l=1.7e-07 $layer=mcon $count=1 $X=0.94 $Y=1.19
+ $X2=0.94 $Y2=1.19
r285 60 66 0.115467 $w=2.3e-07 $l=1.45e-07 $layer=MET1_cond $X=5.71 $Y=1.19
+ $X2=5.565 $Y2=1.19
r286 59 69 0.128299 $w=2.3e-07 $l=1.65e-07 $layer=MET1_cond $X=9.155 $Y=1.19
+ $X2=9.32 $Y2=1.19
r287 59 60 4.26361 $w=1.4e-07 $l=3.445e-06 $layer=MET1_cond $X=9.155 $Y=1.19
+ $X2=5.71 $Y2=1.19
r288 58 62 0.115467 $w=2.3e-07 $l=1.45e-07 $layer=MET1_cond $X=1.085 $Y=1.19
+ $X2=0.94 $Y2=1.19
r289 57 66 0.115467 $w=2.3e-07 $l=1.45e-07 $layer=MET1_cond $X=5.42 $Y=1.19
+ $X2=5.565 $Y2=1.19
r290 57 58 5.36509 $w=1.4e-07 $l=4.335e-06 $layer=MET1_cond $X=5.42 $Y=1.19
+ $X2=1.085 $Y2=1.19
r291 54 92 25.4279 $w=2.03e-07 $l=4.7e-07 $layer=LI1_cond $X=0.812 $Y=1.795
+ $X2=0.812 $Y2=1.325
r292 51 91 12.0416 $w=1.73e-07 $l=1.9e-07 $layer=LI1_cond $X=0.797 $Y=0.805
+ $X2=0.797 $Y2=0.995
r293 50 56 4.31308 $w=1.7e-07 $l=1.28e-07 $layer=LI1_cond $X=0.345 $Y=1.88
+ $X2=0.217 $Y2=1.88
r294 49 54 6.89401 $w=1.7e-07 $l=1.38109e-07 $layer=LI1_cond $X=0.71 $Y=1.88
+ $X2=0.812 $Y2=1.795
r295 49 50 23.8128 $w=1.68e-07 $l=3.65e-07 $layer=LI1_cond $X=0.71 $Y=1.88
+ $X2=0.345 $Y2=1.88
r296 47 51 6.81835 $w=1.7e-07 $l=1.22327e-07 $layer=LI1_cond $X=0.71 $Y=0.72
+ $X2=0.797 $Y2=0.805
r297 47 48 23.8128 $w=1.68e-07 $l=3.65e-07 $layer=LI1_cond $X=0.71 $Y=0.72
+ $X2=0.345 $Y2=0.72
r298 43 48 7.14316 $w=1.7e-07 $l=1.62019e-07 $layer=LI1_cond $X=0.22 $Y=0.635
+ $X2=0.345 $Y2=0.72
r299 43 45 5.76222 $w=2.48e-07 $l=1.25e-07 $layer=LI1_cond $X=0.22 $Y=0.635
+ $X2=0.22 $Y2=0.51
r300 39 73 6.10776 $w=2.75e-07 $l=2.8e-08 $layer=POLY_cond $X=9.317 $Y=1.082
+ $X2=9.317 $Y2=1.11
r301 39 40 42.1909 $w=2.75e-07 $l=1.37e-07 $layer=POLY_cond $X=9.317 $Y=1.082
+ $X2=9.317 $Y2=0.945
r302 37 73 32.7201 $w=2.75e-07 $l=1.5e-07 $layer=POLY_cond $X=9.317 $Y=1.26
+ $X2=9.317 $Y2=1.11
r303 37 38 28.5635 $w=2.75e-07 $l=1.1e-07 $layer=POLY_cond $X=9.27 $Y=1.26
+ $X2=9.27 $Y2=1.37
r304 34 40 271.766 $w=1.5e-07 $l=5.3e-07 $layer=POLY_cond $X=9.255 $Y=0.415
+ $X2=9.255 $Y2=0.945
r305 29 31 76.3167 $w=1.8e-07 $l=2.85e-07 $layer=POLY_cond $X=9.185 $Y=1.99
+ $X2=9.185 $Y2=2.275
r306 28 29 33.5616 $w=2e-07 $l=1e-07 $layer=POLY_cond $X=9.185 $Y=1.89 $X2=9.185
+ $Y2=1.99
r307 28 38 172.42 $w=2e-07 $l=5.2e-07 $layer=POLY_cond $X=9.185 $Y=1.89
+ $X2=9.185 $Y2=1.37
r308 24 26 76.3167 $w=1.8e-07 $l=2.85e-07 $layer=POLY_cond $X=6.53 $Y=1.99
+ $X2=6.53 $Y2=2.275
r309 23 24 33.5616 $w=2e-07 $l=1e-07 $layer=POLY_cond $X=6.53 $Y=1.89 $X2=6.53
+ $Y2=1.99
r310 22 23 164.131 $w=2e-07 $l=4.95e-07 $layer=POLY_cond $X=6.53 $Y=1.395
+ $X2=6.53 $Y2=1.89
r311 19 21 81.94 $w=1.5e-07 $l=2.55e-07 $layer=POLY_cond $X=5.985 $Y=0.67
+ $X2=5.985 $Y2=0.415
r312 18 82 20.1192 $w=1.5e-07 $l=1.58e-07 $layer=POLY_cond $X=5.72 $Y=1.32
+ $X2=5.562 $Y2=1.32
r313 17 22 27.6518 $w=1.5e-07 $l=1.32288e-07 $layer=POLY_cond $X=6.43 $Y=1.32
+ $X2=6.53 $Y2=1.395
r314 17 18 364.064 $w=1.5e-07 $l=7.1e-07 $layer=POLY_cond $X=6.43 $Y=1.32
+ $X2=5.72 $Y2=1.32
r315 15 19 26.9307 $w=1.5e-07 $l=1.06066e-07 $layer=POLY_cond $X=5.91 $Y=0.745
+ $X2=5.985 $Y2=0.67
r316 15 16 97.4255 $w=1.5e-07 $l=1.9e-07 $layer=POLY_cond $X=5.91 $Y=0.745
+ $X2=5.72 $Y2=0.745
r317 13 16 26.9307 $w=1.5e-07 $l=1.06066e-07 $layer=POLY_cond $X=5.645 $Y=0.82
+ $X2=5.72 $Y2=0.745
r318 13 81 125.628 $w=1.5e-07 $l=2.45e-07 $layer=POLY_cond $X=5.645 $Y=0.82
+ $X2=5.645 $Y2=1.065
r319 10 76 38.578 $w=2.95e-07 $l=1.77059e-07 $layer=POLY_cond $X=0.99 $Y=0.995
+ $X2=0.965 $Y2=1.16
r320 10 12 139.78 $w=1.5e-07 $l=4.35e-07 $layer=POLY_cond $X=0.99 $Y=0.995
+ $X2=0.99 $Y2=0.56
r321 7 76 48.1208 $w=2.95e-07 $l=2.57391e-07 $layer=POLY_cond $X=0.98 $Y=1.41
+ $X2=0.965 $Y2=1.16
r322 7 9 153.972 $w=1.8e-07 $l=5.75e-07 $layer=POLY_cond $X=0.98 $Y=1.41
+ $X2=0.98 $Y2=1.985
r323 2 56 300 $w=1.7e-07 $l=5.33854e-07 $layer=licon1_PDIFF $count=2 $X=0.135
+ $Y=1.485 $X2=0.26 $Y2=1.96
r324 1 45 182 $w=1.7e-07 $l=3.31662e-07 $layer=licon1_NDIFF $count=1 $X=0.135
+ $Y=0.235 $X2=0.26 $Y2=0.51
.ends

.subckt PM_SKY130_FD_SC_HDLL__SDFRTP_4%A_331_66# 1 2 7 9 11 12 14 17 19 20 23 26
+ 28 30 31 33 34 35 38 46
c142 46 0 1.12841e-19 $X=2.62 $Y=1.165
c143 31 0 8.29887e-20 $X=2.73 $Y=1.09
r144 38 39 145.28 $w=1.7e-07 $l=1.7e-07 $layer=licon1_POLY $count=1 $X=4.35
+ $Y=1.52 $X2=4.35 $Y2=1.52
r145 36 38 71.4385 $w=1.68e-07 $l=1.095e-06 $layer=LI1_cond $X=4.35 $Y=0.425
+ $X2=4.35 $Y2=1.52
r146 34 36 6.81649 $w=1.7e-07 $l=1.20208e-07 $layer=LI1_cond $X=4.265 $Y=0.34
+ $X2=4.35 $Y2=0.425
r147 34 35 53.4973 $w=1.68e-07 $l=8.2e-07 $layer=LI1_cond $X=4.265 $Y=0.34
+ $X2=3.445 $Y2=0.34
r148 32 35 6.81649 $w=1.7e-07 $l=1.20208e-07 $layer=LI1_cond $X=3.36 $Y=0.425
+ $X2=3.445 $Y2=0.34
r149 32 33 37.1872 $w=1.68e-07 $l=5.7e-07 $layer=LI1_cond $X=3.36 $Y=0.425
+ $X2=3.36 $Y2=0.995
r150 31 45 6.85038 $w=2.77e-07 $l=1.6895e-07 $layer=LI1_cond $X=2.73 $Y=1.09
+ $X2=2.602 $Y2=0.995
r151 30 33 6.84389 $w=1.9e-07 $l=1.30767e-07 $layer=LI1_cond $X=3.275 $Y=1.09
+ $X2=3.36 $Y2=0.995
r152 30 31 31.8134 $w=1.88e-07 $l=5.45e-07 $layer=LI1_cond $X=3.275 $Y=1.09
+ $X2=2.73 $Y2=1.09
r153 29 46 18.2945 $w=3.8e-07 $l=1.25e-07 $layer=POLY_cond $X=2.62 $Y=1.29
+ $X2=2.62 $Y2=1.165
r154 28 29 145.28 $w=1.7e-07 $l=1.7e-07 $layer=licon1_POLY $count=1 $X=2.645
+ $Y=1.29 $X2=2.645 $Y2=1.29
r155 26 28 28.2462 $w=2.53e-07 $l=6.25e-07 $layer=LI1_cond $X=2.602 $Y=1.915
+ $X2=2.602 $Y2=1.29
r156 25 45 1.23816 $w=2.55e-07 $l=1.9e-07 $layer=LI1_cond $X=2.602 $Y=1.185
+ $X2=2.602 $Y2=0.995
r157 25 28 4.74535 $w=2.53e-07 $l=1.05e-07 $layer=LI1_cond $X=2.602 $Y=1.185
+ $X2=2.602 $Y2=1.29
r158 21 26 23.2909 $w=1.68e-07 $l=3.57e-07 $layer=LI1_cond $X=2.245 $Y=2
+ $X2=2.602 $Y2=2
r159 21 23 5.76222 $w=2.68e-07 $l=1.35e-07 $layer=LI1_cond $X=2.245 $Y=2.085
+ $X2=2.245 $Y2=2.22
r160 19 45 16.6508 $w=2.77e-07 $l=4.17407e-07 $layer=LI1_cond $X=2.265 $Y=0.815
+ $X2=2.602 $Y2=0.995
r161 19 20 26.0963 $w=1.68e-07 $l=4e-07 $layer=LI1_cond $X=2.265 $Y=0.815
+ $X2=1.865 $Y2=0.815
r162 15 20 6.81649 $w=1.7e-07 $l=1.20208e-07 $layer=LI1_cond $X=1.78 $Y=0.73
+ $X2=1.865 $Y2=0.815
r163 15 17 11.0909 $w=1.68e-07 $l=1.7e-07 $layer=LI1_cond $X=1.78 $Y=0.73
+ $X2=1.78 $Y2=0.56
r164 12 39 65.191 $w=2.89e-07 $l=3.82034e-07 $layer=POLY_cond $X=4.26 $Y=1.87
+ $X2=4.327 $Y2=1.52
r165 12 14 92.3833 $w=1.8e-07 $l=3.45e-07 $layer=POLY_cond $X=4.26 $Y=1.87
+ $X2=4.26 $Y2=2.215
r166 9 11 91.58 $w=1.5e-07 $l=2.85e-07 $layer=POLY_cond $X=3.08 $Y=1.09 $X2=3.08
+ $Y2=0.805
r167 8 46 24.6126 $w=1.5e-07 $l=1.9e-07 $layer=POLY_cond $X=2.81 $Y=1.165
+ $X2=2.62 $Y2=1.165
r168 7 9 26.9307 $w=1.5e-07 $l=1.06066e-07 $layer=POLY_cond $X=3.005 $Y=1.165
+ $X2=3.08 $Y2=1.09
r169 7 8 99.9894 $w=1.5e-07 $l=1.95e-07 $layer=POLY_cond $X=3.005 $Y=1.165
+ $X2=2.81 $Y2=1.165
r170 2 23 600 $w=1.7e-07 $l=3.85357e-07 $layer=licon1_PDIFF $count=1 $X=2.03
+ $Y=1.945 $X2=2.295 $Y2=2.22
r171 1 17 182 $w=1.7e-07 $l=2.85745e-07 $layer=licon1_NDIFF $count=1 $X=1.655
+ $Y=0.33 $X2=1.78 $Y2=0.56
.ends

.subckt PM_SKY130_FD_SC_HDLL__SDFRTP_4%D 1 3 6 8 16
r45 11 16 145.28 $w=1.7e-07 $l=1.7e-07 $layer=licon1_POLY $count=1 $X=3.445
+ $Y=1.62 $X2=3.445 $Y2=1.62
r46 8 16 0.894264 $w=5.33e-07 $l=4e-08 $layer=LI1_cond $X=3.387 $Y=1.53
+ $X2=3.387 $Y2=1.57
r47 4 11 38.6899 $w=2.83e-07 $l=2.00237e-07 $layer=POLY_cond $X=3.54 $Y=1.455
+ $X2=3.462 $Y2=1.62
r48 4 6 333.298 $w=1.5e-07 $l=6.5e-07 $layer=POLY_cond $X=3.54 $Y=1.455 $X2=3.54
+ $Y2=0.805
r49 1 11 48.9395 $w=2.83e-07 $l=2.74773e-07 $layer=POLY_cond $X=3.41 $Y=1.87
+ $X2=3.462 $Y2=1.62
r50 1 3 92.3833 $w=1.8e-07 $l=3.45e-07 $layer=POLY_cond $X=3.41 $Y=1.87 $X2=3.41
+ $Y2=2.215
.ends

.subckt PM_SKY130_FD_SC_HDLL__SDFRTP_4%SCE 4 6 7 8 9 10 11 13 14 16 18 19 21 22
+ 23 24 26 34
c103 23 0 8.29887e-20 $X=2.04 $Y=1.31
c104 14 0 5.48891e-20 $X=2.9 $Y=1.71
r105 30 34 3.79275 $w=5.79e-07 $l=1.8e-07 $layer=LI1_cond $X=1.805 $Y=1.407
+ $X2=1.985 $Y2=1.407
r106 29 30 145.28 $w=1.7e-07 $l=1.7e-07 $layer=licon1_POLY $count=1 $X=1.805
+ $Y=1.31 $X2=1.805 $Y2=1.31
r107 26 34 1.15889 $w=5.79e-07 $l=5.5e-08 $layer=LI1_cond $X=2.04 $Y=1.407
+ $X2=1.985 $Y2=1.407
r108 22 29 27.9778 $w=3.3e-07 $l=1.6e-07 $layer=POLY_cond $X=1.965 $Y=1.31
+ $X2=1.805 $Y2=1.31
r109 22 23 5.03009 $w=3.3e-07 $l=7.5e-08 $layer=POLY_cond $X=1.965 $Y=1.31
+ $X2=2.04 $Y2=1.31
r110 19 21 27.474 $w=5e-07 $l=2.85e-07 $layer=POLY_cond $X=4.245 $Y=0.255
+ $X2=4.245 $Y2=0.54
r111 16 18 92.3833 $w=1.8e-07 $l=3.45e-07 $layer=POLY_cond $X=3 $Y=1.87 $X2=3
+ $Y2=2.215
r112 15 24 9.57678 $w=1.5e-07 $l=1e-07 $layer=POLY_cond $X=2.63 $Y=1.71 $X2=2.53
+ $Y2=1.71
r113 14 16 27.2212 $w=1.5e-07 $l=2.03961e-07 $layer=POLY_cond $X=2.9 $Y=1.71
+ $X2=3 $Y2=1.87
r114 14 15 138.447 $w=1.5e-07 $l=2.7e-07 $layer=POLY_cond $X=2.9 $Y=1.71
+ $X2=2.63 $Y2=1.71
r115 11 24 53.8601 $w=2e-07 $l=1.6e-07 $layer=POLY_cond $X=2.53 $Y=1.87 $X2=2.53
+ $Y2=1.71
r116 11 13 92.3833 $w=1.8e-07 $l=3.45e-07 $layer=POLY_cond $X=2.53 $Y=1.87
+ $X2=2.53 $Y2=2.215
r117 9 24 9.57678 $w=1.5e-07 $l=1e-07 $layer=POLY_cond $X=2.43 $Y=1.71 $X2=2.53
+ $Y2=1.71
r118 9 10 161.521 $w=1.5e-07 $l=3.15e-07 $layer=POLY_cond $X=2.43 $Y=1.71
+ $X2=2.115 $Y2=1.71
r119 7 19 38.6381 $w=1.5e-07 $l=2.85044e-07 $layer=POLY_cond $X=3.995 $Y=0.18
+ $X2=4.245 $Y2=0.255
r120 7 8 964 $w=1.5e-07 $l=1.88e-06 $layer=POLY_cond $X=3.995 $Y=0.18 $X2=2.115
+ $Y2=0.18
r121 6 10 26.9307 $w=1.5e-07 $l=1.06066e-07 $layer=POLY_cond $X=2.04 $Y=1.635
+ $X2=2.115 $Y2=1.71
r122 5 23 37.0704 $w=1.5e-07 $l=1.65e-07 $layer=POLY_cond $X=2.04 $Y=1.475
+ $X2=2.04 $Y2=1.31
r123 5 6 82.0426 $w=1.5e-07 $l=1.6e-07 $layer=POLY_cond $X=2.04 $Y=1.475
+ $X2=2.04 $Y2=1.635
r124 2 23 37.0704 $w=1.5e-07 $l=1.65e-07 $layer=POLY_cond $X=2.04 $Y=1.145
+ $X2=2.04 $Y2=1.31
r125 2 4 310.223 $w=1.5e-07 $l=6.05e-07 $layer=POLY_cond $X=2.04 $Y=1.145
+ $X2=2.04 $Y2=0.54
r126 1 8 26.9307 $w=1.5e-07 $l=1.06066e-07 $layer=POLY_cond $X=2.04 $Y=0.255
+ $X2=2.115 $Y2=0.18
r127 1 4 146.138 $w=1.5e-07 $l=2.85e-07 $layer=POLY_cond $X=2.04 $Y=0.255
+ $X2=2.04 $Y2=0.54
.ends

.subckt PM_SKY130_FD_SC_HDLL__SDFRTP_4%SCD 1 3 6 8 16
c39 16 0 1.28412e-19 $X=4.845 $Y=1.53
r40 11 16 145.28 $w=1.7e-07 $l=1.7e-07 $layer=licon1_POLY $count=1 $X=4.87
+ $Y=1.535 $X2=4.87 $Y2=1.535
r41 8 16 0.246465 $w=9.88e-07 $l=2e-08 $layer=LI1_cond $X=4.825 $Y=1.205
+ $X2=4.845 $Y2=1.205
r42 4 11 34.2818 $w=2.92e-07 $l=2.0106e-07 $layer=POLY_cond $X=4.955 $Y=1.37
+ $X2=4.875 $Y2=1.535
r43 4 6 322.629 $w=1.8e-07 $l=8.3e-07 $layer=POLY_cond $X=4.955 $Y=1.37
+ $X2=4.955 $Y2=0.54
r44 1 11 62.3435 $w=2.92e-07 $l=3.68341e-07 $layer=POLY_cond $X=4.805 $Y=1.87
+ $X2=4.875 $Y2=1.535
r45 1 3 92.3833 $w=1.8e-07 $l=3.45e-07 $layer=POLY_cond $X=4.805 $Y=1.87
+ $X2=4.805 $Y2=2.215
.ends

.subckt PM_SKY130_FD_SC_HDLL__SDFRTP_4%A_213_47# 1 2 7 9 10 12 13 15 16 18 23 25
+ 30 31 33 34 36 39 40 41 46 47 48 49 52 58 63 66 74 81
c253 66 0 3.82543e-21 $X=6.535 $Y=0.87
c254 46 0 2.76238e-19 $X=5.89 $Y=1.87
c255 41 0 5.99032e-20 $X=9.315 $Y=1.58
r256 73 74 145.28 $w=1.7e-07 $l=1.7e-07 $layer=licon1_POLY $count=1 $X=9.63
+ $Y=1.745 $X2=9.63 $Y2=1.745
r257 63 81 7.18001 $w=2.98e-07 $l=1.65e-07 $layer=LI1_cond $X=5.97 $Y=1.74
+ $X2=5.97 $Y2=1.575
r258 62 63 145.28 $w=1.7e-07 $l=1.7e-07 $layer=licon1_POLY $count=1 $X=5.905
+ $Y=1.74 $X2=5.905 $Y2=1.74
r259 58 74 9.3 $w=1.7e-07 $l=1.7e-07 $layer=mcon $count=1 $X=9.65 $Y=1.87
+ $X2=9.65 $Y2=1.87
r260 55 63 9.3 $w=1.7e-07 $l=1.7e-07 $layer=mcon $count=1 $X=6.035 $Y=1.87
+ $X2=6.035 $Y2=1.87
r261 51 52 9.3 $w=1.7e-07 $l=1.7e-07 $layer=mcon $count=1 $X=1.22 $Y=1.87
+ $X2=1.22 $Y2=1.87
r262 49 55 0.115467 $w=2.3e-07 $l=1.45e-07 $layer=MET1_cond $X=6.18 $Y=1.87
+ $X2=6.035 $Y2=1.87
r263 48 58 0.118675 $w=2.3e-07 $l=1.5e-07 $layer=MET1_cond $X=9.5 $Y=1.87
+ $X2=9.65 $Y2=1.87
r264 48 49 4.1089 $w=1.4e-07 $l=3.32e-06 $layer=MET1_cond $X=9.5 $Y=1.87
+ $X2=6.18 $Y2=1.87
r265 47 51 0.118675 $w=2.3e-07 $l=1.5e-07 $layer=MET1_cond $X=1.37 $Y=1.87
+ $X2=1.22 $Y2=1.87
r266 46 55 0.115467 $w=2.3e-07 $l=1.45e-07 $layer=MET1_cond $X=5.89 $Y=1.87
+ $X2=6.035 $Y2=1.87
r267 46 47 5.59405 $w=1.4e-07 $l=4.52e-06 $layer=MET1_cond $X=5.89 $Y=1.87
+ $X2=1.37 $Y2=1.87
r268 44 74 7.22718 $w=2.93e-07 $l=1.85e-07 $layer=LI1_cond $X=9.445 $Y=1.807
+ $X2=9.63 $Y2=1.807
r269 41 44 10.0617 $w=2.58e-07 $l=2.27e-07 $layer=LI1_cond $X=9.315 $Y=1.58
+ $X2=9.315 $Y2=1.807
r270 39 52 1.25266 $w=2.28e-07 $l=2.5e-08 $layer=LI1_cond $X=1.25 $Y=1.845
+ $X2=1.25 $Y2=1.87
r271 39 40 6.56993 $w=2.28e-07 $l=1.15e-07 $layer=LI1_cond $X=1.25 $Y=1.845
+ $X2=1.25 $Y2=1.73
r272 38 40 68.8289 $w=1.68e-07 $l=1.055e-06 $layer=LI1_cond $X=1.28 $Y=0.675
+ $X2=1.28 $Y2=1.73
r273 36 38 8.79328 $w=2.48e-07 $l=1.65e-07 $layer=LI1_cond $X=1.24 $Y=0.51
+ $X2=1.24 $Y2=0.675
r274 33 41 3.22376 $w=1.7e-07 $l=1.3e-07 $layer=LI1_cond $X=9.185 $Y=1.58
+ $X2=9.315 $Y2=1.58
r275 33 34 14.0267 $w=1.68e-07 $l=2.15e-07 $layer=LI1_cond $X=9.185 $Y=1.58
+ $X2=8.97 $Y2=1.58
r276 31 68 21.8577 $w=3.3e-07 $l=1.25e-07 $layer=POLY_cond $X=8.835 $Y=0.87
+ $X2=8.71 $Y2=0.87
r277 30 31 145.28 $w=1.7e-07 $l=1.7e-07 $layer=licon1_POLY $count=1 $X=8.835
+ $Y=0.87 $X2=8.835 $Y2=0.87
r278 28 34 7.21222 $w=1.7e-07 $l=1.67183e-07 $layer=LI1_cond $X=8.84 $Y=1.495
+ $X2=8.97 $Y2=1.58
r279 28 30 27.703 $w=2.58e-07 $l=6.25e-07 $layer=LI1_cond $X=8.84 $Y=1.495
+ $X2=8.84 $Y2=0.87
r280 26 66 19.2347 $w=3.3e-07 $l=1.1e-07 $layer=POLY_cond $X=6.425 $Y=0.87
+ $X2=6.535 $Y2=0.87
r281 25 26 145.28 $w=1.7e-07 $l=1.7e-07 $layer=licon1_POLY $count=1 $X=6.425
+ $Y=0.87 $X2=6.425 $Y2=0.87
r282 23 25 10.6514 $w=3.28e-07 $l=3.05e-07 $layer=LI1_cond $X=6.12 $Y=0.87
+ $X2=6.425 $Y2=0.87
r283 21 23 7.17723 $w=3.3e-07 $l=2.13014e-07 $layer=LI1_cond $X=6.01 $Y=1.035
+ $X2=6.12 $Y2=0.87
r284 21 81 28.2872 $w=2.18e-07 $l=5.4e-07 $layer=LI1_cond $X=6.01 $Y=1.035
+ $X2=6.01 $Y2=1.575
r285 16 73 47.186 $w=2.97e-07 $l=2.4995e-07 $layer=POLY_cond $X=9.665 $Y=1.99
+ $X2=9.655 $Y2=1.745
r286 16 18 76.3167 $w=1.8e-07 $l=2.85e-07 $layer=POLY_cond $X=9.665 $Y=1.99
+ $X2=9.665 $Y2=2.275
r287 13 68 21.2229 $w=1.5e-07 $l=1.65e-07 $layer=POLY_cond $X=8.71 $Y=0.705
+ $X2=8.71 $Y2=0.87
r288 13 15 93.1867 $w=1.5e-07 $l=2.9e-07 $layer=POLY_cond $X=8.71 $Y=0.705
+ $X2=8.71 $Y2=0.415
r289 10 66 21.2229 $w=1.5e-07 $l=1.65e-07 $layer=POLY_cond $X=6.535 $Y=0.705
+ $X2=6.535 $Y2=0.87
r290 10 12 93.1867 $w=1.5e-07 $l=2.9e-07 $layer=POLY_cond $X=6.535 $Y=0.705
+ $X2=6.535 $Y2=0.415
r291 7 62 46.5577 $w=3.26e-07 $l=2.54951e-07 $layer=POLY_cond $X=5.92 $Y=1.99
+ $X2=5.93 $Y2=1.74
r292 7 9 76.3167 $w=1.8e-07 $l=2.85e-07 $layer=POLY_cond $X=5.92 $Y=1.99
+ $X2=5.92 $Y2=2.275
r293 2 52 300 $w=1.7e-07 $l=5.44862e-07 $layer=licon1_PDIFF $count=2 $X=1.07
+ $Y=1.485 $X2=1.22 $Y2=1.96
r294 1 36 182 $w=1.7e-07 $l=3.35783e-07 $layer=licon1_NDIFF $count=1 $X=1.065
+ $Y=0.235 $X2=1.2 $Y2=0.51
.ends

.subckt PM_SKY130_FD_SC_HDLL__SDFRTP_4%A_1380_303# 1 2 7 9 12 14 20 23 27 30 33
+ 34 35
c108 35 0 5.91276e-20 $X=8.385 $Y=1.595
c109 33 0 1.46876e-19 $X=8.385 $Y=0.835
c110 1 0 1.64006e-19 $X=8.31 $Y=0.235
r111 34 36 8.92214 $w=3.08e-07 $l=2.4e-07 $layer=LI1_cond $X=8.385 $Y=1.68
+ $X2=8.385 $Y2=1.92
r112 34 35 5.49324 $w=3.08e-07 $l=8.5e-08 $layer=LI1_cond $X=8.385 $Y=1.68
+ $X2=8.385 $Y2=1.595
r113 33 35 49.5829 $w=1.68e-07 $l=7.6e-07 $layer=LI1_cond $X=8.455 $Y=0.835
+ $X2=8.455 $Y2=1.595
r114 30 32 3.00288 $w=3.78e-07 $l=8.5e-08 $layer=LI1_cond $X=8.42 $Y=0.36
+ $X2=8.42 $Y2=0.445
r115 25 27 19.246 $w=1.68e-07 $l=2.95e-07 $layer=LI1_cond $X=8.9 $Y=2.005
+ $X2=8.9 $Y2=2.3
r116 24 36 4.25403 $w=1.7e-07 $l=1.55e-07 $layer=LI1_cond $X=8.54 $Y=1.92
+ $X2=8.385 $Y2=1.92
r117 23 25 6.81649 $w=1.7e-07 $l=1.20208e-07 $layer=LI1_cond $X=8.815 $Y=1.92
+ $X2=8.9 $Y2=2.005
r118 23 24 17.9412 $w=1.68e-07 $l=2.75e-07 $layer=LI1_cond $X=8.815 $Y=1.92
+ $X2=8.54 $Y2=1.92
r119 20 33 8.09553 $w=3.08e-07 $l=1.55e-07 $layer=LI1_cond $X=8.385 $Y=0.68
+ $X2=8.385 $Y2=0.835
r120 20 32 8.73626 $w=3.08e-07 $l=2.35e-07 $layer=LI1_cond $X=8.385 $Y=0.68
+ $X2=8.385 $Y2=0.445
r121 16 17 145.28 $w=1.7e-07 $l=1.7e-07 $layer=licon1_POLY $count=1 $X=7.125
+ $Y=1.68 $X2=7.125 $Y2=1.68
r122 14 34 4.25403 $w=1.7e-07 $l=1.55e-07 $layer=LI1_cond $X=8.23 $Y=1.68
+ $X2=8.385 $Y2=1.68
r123 14 16 72.0909 $w=1.68e-07 $l=1.105e-06 $layer=LI1_cond $X=8.23 $Y=1.68
+ $X2=7.125 $Y2=1.68
r124 10 17 38.7839 $w=3.5e-07 $l=1.83916e-07 $layer=POLY_cond $X=7.065 $Y=1.515
+ $X2=7.105 $Y2=1.68
r125 10 12 548.66 $w=1.5e-07 $l=1.07e-06 $layer=POLY_cond $X=7.065 $Y=1.515
+ $X2=7.065 $Y2=0.445
r126 7 17 54.0257 $w=3.5e-07 $l=3.58678e-07 $layer=POLY_cond $X=7 $Y=1.99
+ $X2=7.105 $Y2=1.68
r127 7 9 76.3167 $w=1.8e-07 $l=2.85e-07 $layer=POLY_cond $X=7 $Y=1.99 $X2=7
+ $Y2=2.275
r128 2 27 600 $w=1.7e-07 $l=7.26137e-07 $layer=licon1_PDIFF $count=1 $X=8.75
+ $Y=1.645 $X2=8.9 $Y2=2.3
r129 1 30 182 $w=1.7e-07 $l=1.8735e-07 $layer=licon1_NDIFF $count=1 $X=8.31
+ $Y=0.235 $X2=8.445 $Y2=0.36
.ends

.subckt PM_SKY130_FD_SC_HDLL__SDFRTP_4%RESET_B 3 5 6 8 11 14 15 17 18 20 23 25
+ 26 29 32 35 37 40 50
c167 50 0 4.8947e-20 $X=11.26 $Y=0.85
c168 40 0 8.70495e-20 $X=10.77 $Y=1.15
c169 35 0 1.46876e-19 $X=7.535 $Y=0.96
c170 29 0 1.657e-19 $X=10.92 $Y=1.17
c171 25 0 1.64006e-19 $X=10.775 $Y=0.85
c172 18 0 1.48828e-19 $X=11.065 $Y=1.17
c173 5 0 1.10071e-19 $X=7.62 $Y=1.89
r174 40 43 39.5599 $w=3.05e-07 $l=1.65e-07 $layer=POLY_cond $X=10.787 $Y=1.15
+ $X2=10.787 $Y2=1.315
r175 40 42 47.9606 $w=3.05e-07 $l=1.65e-07 $layer=POLY_cond $X=10.787 $Y=1.15
+ $X2=10.787 $Y2=0.985
r176 40 41 145.28 $w=1.7e-07 $l=1.7e-07 $layer=licon1_POLY $count=1 $X=10.77
+ $Y=1.15 $X2=10.77 $Y2=1.15
r177 35 38 37.8241 $w=3.2e-07 $l=1.65e-07 $layer=POLY_cond $X=7.56 $Y=0.96
+ $X2=7.56 $Y2=1.125
r178 35 37 53.3639 $w=3.2e-07 $l=2.05e-07 $layer=POLY_cond $X=7.56 $Y=0.96
+ $X2=7.56 $Y2=0.755
r179 32 50 9.3 $w=1.7e-07 $l=1.7e-07 $layer=mcon $count=1 $X=11.26 $Y=0.85
+ $X2=11.26 $Y2=0.85
r180 29 41 9.3 $w=1.7e-07 $l=1.7e-07 $layer=mcon $count=1 $X=10.92 $Y=1.17
+ $X2=10.92 $Y2=1.17
r181 27 32 0.207317 $w=2.05e-07 $l=3.4e-07 $layer=MET1_cond $X=10.92 $Y=0.85
+ $X2=11.26 $Y2=0.85
r182 27 29 0.100411 $w=2.9e-07 $l=2.05e-07 $layer=MET1_cond $X=10.92 $Y=0.965
+ $X2=10.92 $Y2=1.17
r183 25 27 0.101068 $w=2.05e-07 $l=1.45e-07 $layer=MET1_cond $X=10.775 $Y=0.85
+ $X2=10.92 $Y2=0.85
r184 25 26 3.55816 $w=1.4e-07 $l=2.875e-06 $layer=MET1_cond $X=10.775 $Y=0.85
+ $X2=7.9 $Y2=0.85
r185 23 35 145.28 $w=1.7e-07 $l=1.7e-07 $layer=licon1_POLY $count=1 $X=7.535
+ $Y=0.96 $X2=7.535 $Y2=0.96
r186 22 23 4.65 $w=1.7e-07 $l=3.4e-07 $layer=mcon $count=2 $X=7.7 $Y=0.85
+ $X2=7.7 $Y2=0.85
r187 20 26 0.0850015 $w=2.3e-07 $l=1.15e-07 $layer=MET1_cond $X=7.785 $Y=0.85
+ $X2=7.9 $Y2=0.85
r188 20 22 0.0545364 $w=2.3e-07 $l=8.5e-08 $layer=MET1_cond $X=7.785 $Y=0.85
+ $X2=7.7 $Y2=0.85
r189 19 50 8.12378 $w=3.03e-07 $l=2.15e-07 $layer=LI1_cond $X=11.217 $Y=1.065
+ $X2=11.217 $Y2=0.85
r190 18 41 15.5801 $w=2.08e-07 $l=2.95e-07 $layer=LI1_cond $X=11.065 $Y=1.17
+ $X2=10.77 $Y2=1.17
r191 18 19 7.12258 $w=2.1e-07 $l=1.97646e-07 $layer=LI1_cond $X=11.065 $Y=1.17
+ $X2=11.217 $Y2=1.065
r192 15 17 76.3167 $w=1.8e-07 $l=2.85e-07 $layer=POLY_cond $X=10.735 $Y=1.99
+ $X2=10.735 $Y2=2.275
r193 14 15 33.5616 $w=2e-07 $l=1e-07 $layer=POLY_cond $X=10.735 $Y=1.89
+ $X2=10.735 $Y2=1.99
r194 14 43 190.657 $w=2e-07 $l=5.75e-07 $layer=POLY_cond $X=10.735 $Y=1.89
+ $X2=10.735 $Y2=1.315
r195 11 42 276.894 $w=1.5e-07 $l=5.4e-07 $layer=POLY_cond $X=10.71 $Y=0.445
+ $X2=10.71 $Y2=0.985
r196 6 8 76.3167 $w=1.8e-07 $l=2.85e-07 $layer=POLY_cond $X=7.62 $Y=1.99
+ $X2=7.62 $Y2=2.275
r197 5 6 33.5616 $w=2e-07 $l=1e-07 $layer=POLY_cond $X=7.62 $Y=1.89 $X2=7.62
+ $Y2=1.99
r198 5 38 253.657 $w=2e-07 $l=7.65e-07 $layer=POLY_cond $X=7.62 $Y=1.89 $X2=7.62
+ $Y2=1.125
r199 3 37 99.6133 $w=1.5e-07 $l=3.1e-07 $layer=POLY_cond $X=7.475 $Y=0.445
+ $X2=7.475 $Y2=0.755
.ends

.subckt PM_SKY130_FD_SC_HDLL__SDFRTP_4%A_1202_413# 1 2 9 11 13 15 16 22 23 25 26
+ 29 30 32 34 35
c139 34 0 1.10071e-19 $X=8.065 $Y=1.17
c140 32 0 1.87801e-19 $X=6.925 $Y=1.3
c141 11 0 3.66493e-20 $X=8.57 $Y=1.495
r142 35 40 51.3607 $w=3.05e-07 $l=3.25e-07 $layer=POLY_cond $X=8.12 $Y=1.17
+ $X2=8.12 $Y2=1.495
r143 34 37 8.48128 $w=1.68e-07 $l=1.3e-07 $layer=LI1_cond $X=8.065 $Y=1.17
+ $X2=8.065 $Y2=1.3
r144 34 35 145.28 $w=1.7e-07 $l=1.7e-07 $layer=licon1_POLY $count=1 $X=8.065
+ $Y=1.17 $X2=8.065 $Y2=1.17
r145 29 30 9.47152 $w=3.63e-07 $l=1.95e-07 $layer=LI1_cond $X=6.277 $Y=2.33
+ $X2=6.277 $Y2=2.135
r146 27 32 5.16603 $w=1.7e-07 $l=8.5e-08 $layer=LI1_cond $X=7.01 $Y=1.3
+ $X2=6.925 $Y2=1.3
r147 26 37 0.716491 $w=1.7e-07 $l=8.5e-08 $layer=LI1_cond $X=7.98 $Y=1.3
+ $X2=8.065 $Y2=1.3
r148 26 27 63.2834 $w=1.68e-07 $l=9.7e-07 $layer=LI1_cond $X=7.98 $Y=1.3
+ $X2=7.01 $Y2=1.3
r149 25 32 1.34256 $w=1.7e-07 $l=8.5e-08 $layer=LI1_cond $X=6.925 $Y=1.215
+ $X2=6.925 $Y2=1.3
r150 24 25 48.2781 $w=1.68e-07 $l=7.4e-07 $layer=LI1_cond $X=6.925 $Y=0.475
+ $X2=6.925 $Y2=1.215
r151 22 32 5.16603 $w=1.7e-07 $l=8.5e-08 $layer=LI1_cond $X=6.84 $Y=1.3
+ $X2=6.925 $Y2=1.3
r152 22 23 24.7914 $w=1.68e-07 $l=3.8e-07 $layer=LI1_cond $X=6.84 $Y=1.3
+ $X2=6.46 $Y2=1.3
r153 20 23 6.81649 $w=1.7e-07 $l=1.20208e-07 $layer=LI1_cond $X=6.375 $Y=1.385
+ $X2=6.46 $Y2=1.3
r154 20 30 48.9305 $w=1.68e-07 $l=7.5e-07 $layer=LI1_cond $X=6.375 $Y=1.385
+ $X2=6.375 $Y2=2.135
r155 16 24 6.81649 $w=1.7e-07 $l=1.20208e-07 $layer=LI1_cond $X=6.84 $Y=0.39
+ $X2=6.925 $Y2=0.475
r156 16 18 36.861 $w=1.68e-07 $l=5.65e-07 $layer=LI1_cond $X=6.84 $Y=0.39
+ $X2=6.275 $Y2=0.39
r157 13 15 132.55 $w=1.8e-07 $l=4.95e-07 $layer=POLY_cond $X=8.66 $Y=1.57
+ $X2=8.66 $Y2=2.065
r158 12 40 19.3576 $w=1.5e-07 $l=1.9e-07 $layer=POLY_cond $X=8.31 $Y=1.495
+ $X2=8.12 $Y2=1.495
r159 11 13 27.2212 $w=1.5e-07 $l=1.21861e-07 $layer=POLY_cond $X=8.57 $Y=1.495
+ $X2=8.66 $Y2=1.57
r160 11 12 133.319 $w=1.5e-07 $l=2.6e-07 $layer=POLY_cond $X=8.57 $Y=1.495
+ $X2=8.31 $Y2=1.495
r161 7 35 38.5368 $w=3.05e-07 $l=2.14942e-07 $layer=POLY_cond $X=8.235 $Y=1.005
+ $X2=8.12 $Y2=1.17
r162 7 9 230.745 $w=1.5e-07 $l=4.5e-07 $layer=POLY_cond $X=8.235 $Y=1.005
+ $X2=8.235 $Y2=0.555
r163 2 29 600 $w=1.7e-07 $l=3.95917e-07 $layer=licon1_PDIFF $count=1 $X=6.01
+ $Y=2.065 $X2=6.295 $Y2=2.33
r164 1 18 182 $w=1.7e-07 $l=2.82046e-07 $layer=licon1_NDIFF $count=1 $X=6.06
+ $Y=0.235 $X2=6.275 $Y2=0.39
.ends

.subckt PM_SKY130_FD_SC_HDLL__SDFRTP_4%A_1972_21# 1 2 9 12 13 15 16 18 19 21 22
+ 23 24 26 27 29 30 32 33 35 36 38 39 41 46 50 53 54 56 57 58 63 65 66 68 70 73
+ 76 78
c193 78 0 8.39514e-20 $X=10.175 $Y=0.98
c194 53 0 2.50234e-20 $X=10.56 $Y=0.78
c195 50 0 8.70495e-20 $X=10.235 $Y=0.98
c196 23 0 1.97775e-19 $X=12.325 $Y=1.16
c197 12 0 1.72891e-19 $X=10.175 $Y=1.89
r198 81 82 3.17105 $w=3.8e-07 $l=2.5e-08 $layer=POLY_cond $X=12.2 $Y=1.202
+ $X2=12.225 $Y2=1.202
r199 74 81 10.1474 $w=3.8e-07 $l=8e-08 $layer=POLY_cond $X=12.12 $Y=1.202
+ $X2=12.2 $Y2=1.202
r200 73 74 145.28 $w=1.7e-07 $l=1.7e-07 $layer=licon1_POLY $count=1 $X=12.12
+ $Y=1.16 $X2=12.12 $Y2=1.16
r201 71 76 0.850971 $w=3.3e-07 $l=8.8e-08 $layer=LI1_cond $X=11.735 $Y=1.16
+ $X2=11.647 $Y2=1.16
r202 71 73 13.4452 $w=3.28e-07 $l=3.85e-07 $layer=LI1_cond $X=11.735 $Y=1.16
+ $X2=12.12 $Y2=1.16
r203 69 76 8.52281 $w=1.72e-07 $l=1.65997e-07 $layer=LI1_cond $X=11.645 $Y=1.325
+ $X2=11.647 $Y2=1.16
r204 69 70 38.492 $w=1.68e-07 $l=5.9e-07 $layer=LI1_cond $X=11.645 $Y=1.325
+ $X2=11.645 $Y2=1.915
r205 68 76 8.52281 $w=1.72e-07 $l=1.65e-07 $layer=LI1_cond $X=11.647 $Y=0.995
+ $X2=11.647 $Y2=1.16
r206 67 68 33.5896 $w=1.73e-07 $l=5.3e-07 $layer=LI1_cond $X=11.647 $Y=0.465
+ $X2=11.647 $Y2=0.995
r207 65 70 6.81649 $w=1.7e-07 $l=1.20208e-07 $layer=LI1_cond $X=11.56 $Y=2
+ $X2=11.645 $Y2=1.915
r208 65 66 31.3155 $w=1.68e-07 $l=4.8e-07 $layer=LI1_cond $X=11.56 $Y=2
+ $X2=11.08 $Y2=2
r209 61 66 6.81649 $w=1.7e-07 $l=1.20208e-07 $layer=LI1_cond $X=10.995 $Y=2.085
+ $X2=11.08 $Y2=2
r210 61 63 8.15508 $w=1.68e-07 $l=1.25e-07 $layer=LI1_cond $X=10.995 $Y=2.085
+ $X2=10.995 $Y2=2.21
r211 58 60 46.6471 $w=1.68e-07 $l=7.15e-07 $layer=LI1_cond $X=10.73 $Y=0.38
+ $X2=11.445 $Y2=0.38
r212 57 67 6.81835 $w=1.7e-07 $l=1.22327e-07 $layer=LI1_cond $X=11.56 $Y=0.38
+ $X2=11.647 $Y2=0.465
r213 57 60 7.50267 $w=1.68e-07 $l=1.15e-07 $layer=LI1_cond $X=11.56 $Y=0.38
+ $X2=11.445 $Y2=0.38
r214 55 58 6.81649 $w=1.7e-07 $l=1.20208e-07 $layer=LI1_cond $X=10.645 $Y=0.465
+ $X2=10.73 $Y2=0.38
r215 55 56 15.0053 $w=1.68e-07 $l=2.3e-07 $layer=LI1_cond $X=10.645 $Y=0.465
+ $X2=10.645 $Y2=0.695
r216 53 56 6.81649 $w=1.7e-07 $l=1.20208e-07 $layer=LI1_cond $X=10.56 $Y=0.78
+ $X2=10.645 $Y2=0.695
r217 53 54 12.3957 $w=1.68e-07 $l=1.9e-07 $layer=LI1_cond $X=10.56 $Y=0.78
+ $X2=10.37 $Y2=0.78
r218 51 78 11.1231 $w=2.6e-07 $l=6e-08 $layer=POLY_cond $X=10.235 $Y=0.98
+ $X2=10.175 $Y2=0.98
r219 50 51 145.28 $w=1.7e-07 $l=1.7e-07 $layer=licon1_POLY $count=1 $X=10.235
+ $Y=0.98 $X2=10.235 $Y2=0.98
r220 48 54 6.96323 $w=1.7e-07 $l=1.46458e-07 $layer=LI1_cond $X=10.26 $Y=0.865
+ $X2=10.37 $Y2=0.78
r221 48 50 6.02413 $w=2.18e-07 $l=1.15e-07 $layer=LI1_cond $X=10.26 $Y=0.865
+ $X2=10.26 $Y2=0.98
r222 46 47 3.23925 $w=3.72e-07 $l=2.5e-08 $layer=POLY_cond $X=13.765 $Y=1.202
+ $X2=13.79 $Y2=1.202
r223 45 46 57.6586 $w=3.72e-07 $l=4.45e-07 $layer=POLY_cond $X=13.32 $Y=1.202
+ $X2=13.765 $Y2=1.202
r224 44 45 3.23925 $w=3.72e-07 $l=2.5e-08 $layer=POLY_cond $X=13.295 $Y=1.202
+ $X2=13.32 $Y2=1.202
r225 43 44 58.9543 $w=3.72e-07 $l=4.55e-07 $layer=POLY_cond $X=12.84 $Y=1.202
+ $X2=13.295 $Y2=1.202
r226 42 43 10.3656 $w=3.72e-07 $l=8e-08 $layer=POLY_cond $X=12.76 $Y=1.202
+ $X2=12.84 $Y2=1.202
r227 39 47 24.0971 $w=1.5e-07 $l=2.07e-07 $layer=POLY_cond $X=13.79 $Y=0.995
+ $X2=13.79 $Y2=1.202
r228 39 41 139.78 $w=1.5e-07 $l=4.35e-07 $layer=POLY_cond $X=13.79 $Y=0.995
+ $X2=13.79 $Y2=0.56
r229 36 46 19.7411 $w=1.8e-07 $l=2.08e-07 $layer=POLY_cond $X=13.765 $Y=1.41
+ $X2=13.765 $Y2=1.202
r230 36 38 153.972 $w=1.8e-07 $l=5.75e-07 $layer=POLY_cond $X=13.765 $Y=1.41
+ $X2=13.765 $Y2=1.985
r231 33 45 24.0971 $w=1.5e-07 $l=2.07e-07 $layer=POLY_cond $X=13.32 $Y=0.995
+ $X2=13.32 $Y2=1.202
r232 33 35 139.78 $w=1.5e-07 $l=4.35e-07 $layer=POLY_cond $X=13.32 $Y=0.995
+ $X2=13.32 $Y2=0.56
r233 30 44 19.7411 $w=1.8e-07 $l=2.08e-07 $layer=POLY_cond $X=13.295 $Y=1.41
+ $X2=13.295 $Y2=1.202
r234 30 32 153.972 $w=1.8e-07 $l=5.75e-07 $layer=POLY_cond $X=13.295 $Y=1.41
+ $X2=13.295 $Y2=1.985
r235 27 43 24.0971 $w=1.5e-07 $l=2.07e-07 $layer=POLY_cond $X=12.84 $Y=0.995
+ $X2=12.84 $Y2=1.202
r236 27 29 139.78 $w=1.5e-07 $l=4.35e-07 $layer=POLY_cond $X=12.84 $Y=0.995
+ $X2=12.84 $Y2=0.56
r237 24 42 19.7411 $w=1.8e-07 $l=2.08e-07 $layer=POLY_cond $X=12.76 $Y=1.41
+ $X2=12.76 $Y2=1.202
r238 24 26 153.972 $w=1.8e-07 $l=5.75e-07 $layer=POLY_cond $X=12.76 $Y=1.41
+ $X2=12.76 $Y2=1.985
r239 23 82 13.6483 $w=3.8e-07 $l=1.19164e-07 $layer=POLY_cond $X=12.325 $Y=1.16
+ $X2=12.225 $Y2=1.202
r240 22 42 13.6879 $w=3.72e-07 $l=1.19164e-07 $layer=POLY_cond $X=12.66 $Y=1.16
+ $X2=12.76 $Y2=1.202
r241 22 23 58.5785 $w=3.3e-07 $l=3.35e-07 $layer=POLY_cond $X=12.66 $Y=1.16
+ $X2=12.325 $Y2=1.16
r242 19 82 20.2441 $w=1.8e-07 $l=2.08e-07 $layer=POLY_cond $X=12.225 $Y=1.41
+ $X2=12.225 $Y2=1.202
r243 19 21 153.972 $w=1.8e-07 $l=5.75e-07 $layer=POLY_cond $X=12.225 $Y=1.41
+ $X2=12.225 $Y2=1.985
r244 16 81 24.6126 $w=1.5e-07 $l=2.07e-07 $layer=POLY_cond $X=12.2 $Y=0.995
+ $X2=12.2 $Y2=1.202
r245 16 18 139.78 $w=1.5e-07 $l=4.35e-07 $layer=POLY_cond $X=12.2 $Y=0.995
+ $X2=12.2 $Y2=0.56
r246 13 15 76.3167 $w=1.8e-07 $l=2.85e-07 $layer=POLY_cond $X=10.175 $Y=1.99
+ $X2=10.175 $Y2=2.275
r247 12 13 33.5616 $w=2e-07 $l=1e-07 $layer=POLY_cond $X=10.175 $Y=1.89
+ $X2=10.175 $Y2=1.99
r248 11 78 8.99251 $w=2e-07 $l=1.65e-07 $layer=POLY_cond $X=10.175 $Y=1.145
+ $X2=10.175 $Y2=0.98
r249 11 12 247.025 $w=2e-07 $l=7.45e-07 $layer=POLY_cond $X=10.175 $Y=1.145
+ $X2=10.175 $Y2=1.89