* File: sky130_fd_sc_hdll__dfstp_4.pex.spice
* Created: Thu Aug 27 19:04:58 2020
* Program "Calibre xRC"
* Version "v2018.4_34.26"
* Nominal Temperature: 27C
* Circuit Temperature: 27C
* 
.subckt PM_SKY130_FD_SC_HDLL__DFSTP_4%CLK 4 5 7 8 10 13 19 20 24 26
c41 13 0 2.71124e-20 $X=0.52 $Y=0.805
r42 24 27 48.4159 $w=2.7e-07 $l=1.65e-07 $layer=POLY_cond $X=0.245 $Y=1.235
+ $X2=0.245 $Y2=1.4
r43 24 26 48.4159 $w=2.7e-07 $l=1.65e-07 $layer=POLY_cond $X=0.245 $Y=1.235
+ $X2=0.245 $Y2=1.07
r44 19 20 11.1952 $w=3.48e-07 $l=3.4e-07 $layer=LI1_cond $X=0.265 $Y=1.19
+ $X2=0.265 $Y2=1.53
r45 19 24 145.28 $w=1.7e-07 $l=1.7e-07 $layer=licon1_POLY $count=1 $X=0.245
+ $Y=1.235 $X2=0.245 $Y2=1.235
r46 11 13 110.245 $w=1.5e-07 $l=2.15e-07 $layer=POLY_cond $X=0.305 $Y=0.805
+ $X2=0.52 $Y2=0.805
r47 8 13 2.83073 $w=1.5e-07 $l=7.5e-08 $layer=POLY_cond $X=0.52 $Y=0.73 $X2=0.52
+ $Y2=0.805
r48 8 10 91.58 $w=1.5e-07 $l=2.85e-07 $layer=POLY_cond $X=0.52 $Y=0.73 $X2=0.52
+ $Y2=0.445
r49 5 15 97.4255 $w=1.5e-07 $l=1.9e-07 $layer=POLY_cond $X=0.495 $Y=1.665
+ $X2=0.305 $Y2=1.665
r50 5 7 105.772 $w=1.8e-07 $l=3.95e-07 $layer=POLY_cond $X=0.495 $Y=1.74
+ $X2=0.495 $Y2=2.135
r51 4 15 2.83073 $w=1.5e-07 $l=7.5e-08 $layer=POLY_cond $X=0.305 $Y=1.59
+ $X2=0.305 $Y2=1.665
r52 4 27 97.4255 $w=1.5e-07 $l=1.9e-07 $layer=POLY_cond $X=0.305 $Y=1.59
+ $X2=0.305 $Y2=1.4
r53 1 11 2.83073 $w=1.5e-07 $l=7.5e-08 $layer=POLY_cond $X=0.305 $Y=0.88
+ $X2=0.305 $Y2=0.805
r54 1 26 97.4255 $w=1.5e-07 $l=1.9e-07 $layer=POLY_cond $X=0.305 $Y=0.88
+ $X2=0.305 $Y2=1.07
.ends

.subckt PM_SKY130_FD_SC_HDLL__DFSTP_4%A_27_47# 1 2 8 9 11 14 16 18 19 21 22 24
+ 25 27 30 34 35 36 39 41 45 46 49 50 51 53 54 68 72 73 75 76 77 82 90 96
c262 73 0 3.46126e-20 $X=2.875 $Y=1.825
c263 50 0 1.75333e-19 $X=6.37 $Y=0.81
c264 46 0 9.81997e-20 $X=2.585 $Y=0.87
c265 36 0 1.76957e-19 $X=0.66 $Y=1.88
c266 22 0 1.37207e-19 $X=5.54 $Y=1.99
c267 19 0 2.53929e-20 $X=2.96 $Y=1.99
r268 93 104 7.06336 $w=3.08e-07 $l=1.9e-07 $layer=LI1_cond $X=5.605 $Y=1.81
+ $X2=5.415 $Y2=1.81
r269 92 93 145.28 $w=1.7e-07 $l=1.7e-07 $layer=licon1_POLY $count=1 $X=5.605
+ $Y=1.74 $X2=5.605 $Y2=1.74
r270 89 90 145.28 $w=1.7e-07 $l=1.7e-07 $layer=licon1_POLY $count=1 $X=2.965
+ $Y=1.74 $X2=2.965 $Y2=1.74
r271 81 82 5.55434 $w=2.7e-07 $l=2.5e-08 $layer=POLY_cond $X=0.965 $Y=1.235
+ $X2=0.99 $Y2=1.235
r272 76 93 6.87748 $w=3.08e-07 $l=1.85e-07 $layer=LI1_cond $X=5.79 $Y=1.81
+ $X2=5.605 $Y2=1.81
r273 75 77 0.115467 $w=2.3e-07 $l=1.45e-07 $layer=MET1_cond $X=5.79 $Y=1.825
+ $X2=5.645 $Y2=1.825
r274 75 76 9.3 $w=1.7e-07 $l=1.7e-07 $layer=mcon $count=1 $X=5.79 $Y=1.825
+ $X2=5.79 $Y2=1.825
r275 73 77 3.42821 $w=1.4e-07 $l=2.77e-06 $layer=MET1_cond $X=2.875 $Y=1.87
+ $X2=5.645 $Y2=1.87
r276 71 90 7.12695 $w=3.78e-07 $l=2.35e-07 $layer=LI1_cond $X=2.73 $Y=1.765
+ $X2=2.965 $Y2=1.765
r277 71 99 2.88111 $w=3.78e-07 $l=9.5e-08 $layer=LI1_cond $X=2.73 $Y=1.765
+ $X2=2.635 $Y2=1.765
r278 70 73 0.115467 $w=2.3e-07 $l=1.45e-07 $layer=MET1_cond $X=2.73 $Y=1.825
+ $X2=2.875 $Y2=1.825
r279 70 72 0.115467 $w=2.3e-07 $l=1.45e-07 $layer=MET1_cond $X=2.73 $Y=1.825
+ $X2=2.585 $Y2=1.825
r280 70 71 9.3 $w=1.7e-07 $l=1.7e-07 $layer=mcon $count=1 $X=2.73 $Y=1.825
+ $X2=2.73 $Y2=1.825
r281 68 72 2.09158 $w=1.4e-07 $l=1.69e-06 $layer=MET1_cond $X=0.895 $Y=1.87
+ $X2=2.585 $Y2=1.87
r282 65 68 0.115467 $w=2.3e-07 $l=1.45e-07 $layer=MET1_cond $X=0.75 $Y=1.825
+ $X2=0.895 $Y2=1.825
r283 65 66 9.3 $w=1.7e-07 $l=1.7e-07 $layer=mcon $count=1 $X=0.75 $Y=1.825
+ $X2=0.75 $Y2=1.825
r284 58 96 19.2347 $w=3.3e-07 $l=1.1e-07 $layer=POLY_cond $X=6.535 $Y=0.93
+ $X2=6.645 $Y2=0.93
r285 57 58 145.28 $w=1.7e-07 $l=1.7e-07 $layer=licon1_POLY $count=1 $X=6.535
+ $Y=0.93 $X2=6.535 $Y2=0.93
r286 54 57 3.63929 $w=3.78e-07 $l=1.2e-07 $layer=LI1_cond $X=6.56 $Y=0.81
+ $X2=6.56 $Y2=0.93
r287 50 54 5.46774 $w=1.7e-07 $l=1.9e-07 $layer=LI1_cond $X=6.37 $Y=0.81
+ $X2=6.56 $Y2=0.81
r288 50 51 56.7594 $w=1.68e-07 $l=8.7e-07 $layer=LI1_cond $X=6.37 $Y=0.81
+ $X2=5.5 $Y2=0.81
r289 49 104 4.25403 $w=1.7e-07 $l=1.55e-07 $layer=LI1_cond $X=5.415 $Y=1.655
+ $X2=5.415 $Y2=1.81
r290 48 51 6.81649 $w=1.7e-07 $l=1.20208e-07 $layer=LI1_cond $X=5.415 $Y=0.895
+ $X2=5.5 $Y2=0.81
r291 48 49 49.5829 $w=1.68e-07 $l=7.6e-07 $layer=LI1_cond $X=5.415 $Y=0.895
+ $X2=5.415 $Y2=1.655
r292 46 84 22.732 $w=3.3e-07 $l=1.3e-07 $layer=POLY_cond $X=2.585 $Y=0.87
+ $X2=2.455 $Y2=0.87
r293 45 46 145.28 $w=1.7e-07 $l=1.7e-07 $layer=licon1_POLY $count=1 $X=2.585
+ $Y=0.87 $X2=2.585 $Y2=0.87
r294 43 99 2.7393 $w=2.7e-07 $l=1.9e-07 $layer=LI1_cond $X=2.635 $Y=1.575
+ $X2=2.635 $Y2=1.765
r295 43 45 30.0916 $w=2.68e-07 $l=7.05e-07 $layer=LI1_cond $X=2.635 $Y=1.575
+ $X2=2.635 $Y2=0.87
r296 42 81 35.5478 $w=2.7e-07 $l=1.6e-07 $layer=POLY_cond $X=0.805 $Y=1.235
+ $X2=0.965 $Y2=1.235
r297 41 42 145.28 $w=1.7e-07 $l=1.7e-07 $layer=licon1_POLY $count=1 $X=0.805
+ $Y=1.235 $X2=0.805 $Y2=1.235
r298 39 66 2.9826 $w=2.3e-07 $l=8.5e-08 $layer=LI1_cond $X=0.775 $Y=1.795
+ $X2=0.775 $Y2=1.88
r299 39 41 28.0595 $w=2.28e-07 $l=5.6e-07 $layer=LI1_cond $X=0.775 $Y=1.795
+ $X2=0.775 $Y2=1.235
r300 38 41 21.5457 $w=2.28e-07 $l=4.3e-07 $layer=LI1_cond $X=0.775 $Y=0.805
+ $X2=0.775 $Y2=1.235
r301 37 53 3.40825 $w=1.7e-07 $l=8.5e-08 $layer=LI1_cond $X=0.345 $Y=1.88
+ $X2=0.26 $Y2=1.88
r302 36 66 4.03528 $w=1.7e-07 $l=1.15e-07 $layer=LI1_cond $X=0.66 $Y=1.88
+ $X2=0.775 $Y2=1.88
r303 36 37 20.5508 $w=1.68e-07 $l=3.15e-07 $layer=LI1_cond $X=0.66 $Y=1.88
+ $X2=0.345 $Y2=1.88
r304 34 38 7.01789 $w=1.7e-07 $l=1.51658e-07 $layer=LI1_cond $X=0.66 $Y=0.72
+ $X2=0.775 $Y2=0.805
r305 34 35 20.5508 $w=1.68e-07 $l=3.15e-07 $layer=LI1_cond $X=0.66 $Y=0.72
+ $X2=0.345 $Y2=0.72
r306 28 35 6.81649 $w=1.7e-07 $l=1.20208e-07 $layer=LI1_cond $X=0.26 $Y=0.635
+ $X2=0.345 $Y2=0.72
r307 28 30 8.15508 $w=1.68e-07 $l=1.25e-07 $layer=LI1_cond $X=0.26 $Y=0.635
+ $X2=0.26 $Y2=0.51
r308 25 96 21.2229 $w=1.5e-07 $l=1.65e-07 $layer=POLY_cond $X=6.645 $Y=0.765
+ $X2=6.645 $Y2=0.93
r309 25 27 102.827 $w=1.5e-07 $l=3.2e-07 $layer=POLY_cond $X=6.645 $Y=0.765
+ $X2=6.645 $Y2=0.445
r310 22 92 46.5577 $w=3.26e-07 $l=2.91548e-07 $layer=POLY_cond $X=5.54 $Y=1.99
+ $X2=5.63 $Y2=1.74
r311 22 24 76.3167 $w=1.8e-07 $l=2.85e-07 $layer=POLY_cond $X=5.54 $Y=1.99
+ $X2=5.54 $Y2=2.275
r312 19 89 46.5577 $w=3.26e-07 $l=2.64575e-07 $layer=POLY_cond $X=2.96 $Y=1.99
+ $X2=2.99 $Y2=1.74
r313 19 21 76.3167 $w=1.8e-07 $l=2.85e-07 $layer=POLY_cond $X=2.96 $Y=1.99
+ $X2=2.96 $Y2=2.275
r314 16 84 21.2229 $w=1.5e-07 $l=1.65e-07 $layer=POLY_cond $X=2.455 $Y=0.705
+ $X2=2.455 $Y2=0.87
r315 16 18 93.1867 $w=1.5e-07 $l=2.9e-07 $layer=POLY_cond $X=2.455 $Y=0.705
+ $X2=2.455 $Y2=0.415
r316 12 82 16.5046 $w=1.5e-07 $l=1.35e-07 $layer=POLY_cond $X=0.99 $Y=1.1
+ $X2=0.99 $Y2=1.235
r317 12 14 335.862 $w=1.5e-07 $l=6.55e-07 $layer=POLY_cond $X=0.99 $Y=1.1
+ $X2=0.99 $Y2=0.445
r318 9 11 105.772 $w=1.8e-07 $l=3.95e-07 $layer=POLY_cond $X=0.965 $Y=1.74
+ $X2=0.965 $Y2=2.135
r319 8 9 33.5616 $w=2e-07 $l=1e-07 $layer=POLY_cond $X=0.965 $Y=1.64 $X2=0.965
+ $Y2=1.74
r320 7 81 9.86319 $w=2e-07 $l=1.35e-07 $layer=POLY_cond $X=0.965 $Y=1.37
+ $X2=0.965 $Y2=1.235
r321 7 8 89.5258 $w=2e-07 $l=2.7e-07 $layer=POLY_cond $X=0.965 $Y=1.37 $X2=0.965
+ $Y2=1.64
r322 2 53 300 $w=1.7e-07 $l=1.97864e-07 $layer=licon1_PDIFF $count=2 $X=0.135
+ $Y=1.815 $X2=0.26 $Y2=1.96
r323 1 30 182 $w=1.7e-07 $l=3.31662e-07 $layer=licon1_NDIFF $count=1 $X=0.135
+ $Y=0.235 $X2=0.26 $Y2=0.51
.ends

.subckt PM_SKY130_FD_SC_HDLL__DFSTP_4%D 1 3 6 8 9 14
c38 1 0 1.46624e-19 $X=1.955 $Y=1.57
r39 13 14 145.28 $w=1.7e-07 $l=1.7e-07 $layer=licon1_POLY $count=1 $X=1.955
+ $Y=1.17 $X2=1.955 $Y2=1.17
r40 8 9 8.84058 $w=4.58e-07 $l=3.4e-07 $layer=LI1_cond $X=2.1 $Y=1.19 $X2=2.1
+ $Y2=1.53
r41 8 14 0.520034 $w=4.58e-07 $l=2e-08 $layer=LI1_cond $X=2.1 $Y=1.19 $X2=2.1
+ $Y2=1.17
r42 4 13 38.9026 $w=2.7e-07 $l=1.65e-07 $layer=POLY_cond $X=1.98 $Y=1.005
+ $X2=1.98 $Y2=1.17
r43 4 6 230.745 $w=1.5e-07 $l=4.5e-07 $layer=POLY_cond $X=1.98 $Y=1.005 $X2=1.98
+ $Y2=0.555
r44 1 13 76.7755 $w=2.7e-07 $l=4.12311e-07 $layer=POLY_cond $X=1.955 $Y=1.57
+ $X2=1.98 $Y2=1.17
r45 1 3 132.55 $w=1.8e-07 $l=4.95e-07 $layer=POLY_cond $X=1.955 $Y=1.57
+ $X2=1.955 $Y2=2.065
.ends

.subckt PM_SKY130_FD_SC_HDLL__DFSTP_4%A_211_363# 1 2 8 9 11 12 13 16 19 21 24 26
+ 28 29 30 31 34 36 41 43 44 49 50 51 58 63
c199 51 0 1.51904e-19 $X=5.665 $Y=1.195
c200 50 0 4.09811e-20 $X=5.81 $Y=1.195
c201 49 0 2.54518e-19 $X=5.81 $Y=1.195
c202 36 0 2.53929e-20 $X=3.385 $Y=1.19
c203 34 0 9.81997e-20 $X=3.277 $Y=1.12
c204 30 0 1.75333e-19 $X=5.97 $Y=1.125
c205 21 0 1.7977e-19 $X=6.13 $Y=1.89
c206 8 0 4.36039e-20 $X=2.49 $Y=1.89
r207 58 61 48.4159 $w=2.7e-07 $l=1.65e-07 $layer=POLY_cond $X=3.165 $Y=0.93
+ $X2=3.165 $Y2=1.095
r208 58 60 48.4159 $w=2.7e-07 $l=1.65e-07 $layer=POLY_cond $X=3.165 $Y=0.93
+ $X2=3.165 $Y2=0.765
r209 50 54 145.28 $w=1.7e-07 $l=1.7e-07 $layer=licon1_POLY $count=1 $X=5.815
+ $Y=1.26 $X2=5.815 $Y2=1.26
r210 49 51 0.115467 $w=2.3e-07 $l=1.45e-07 $layer=MET1_cond $X=5.81 $Y=1.195
+ $X2=5.665 $Y2=1.195
r211 49 50 9.3 $w=1.7e-07 $l=1.7e-07 $layer=mcon $count=1 $X=5.81 $Y=1.195
+ $X2=5.81 $Y2=1.195
r212 46 47 0.0440827 $w=2.9e-07 $l=7e-08 $layer=MET1_cond $X=3.24 $Y=0.85
+ $X2=3.24 $Y2=0.92
r213 44 58 145.28 $w=1.7e-07 $l=1.7e-07 $layer=licon1_POLY $count=1 $X=3.165
+ $Y=0.93 $X2=3.165 $Y2=0.93
r214 43 46 0.0220415 $w=2.9e-07 $l=4.5e-08 $layer=MET1_cond $X=3.24 $Y=0.805
+ $X2=3.24 $Y2=0.85
r215 43 44 9.3 $w=1.7e-07 $l=1.7e-07 $layer=mcon $count=1 $X=3.24 $Y=0.805
+ $X2=3.24 $Y2=0.805
r216 39 67 59.1587 $w=2.23e-07 $l=1.155e-06 $layer=LI1_cond $X=1.227 $Y=0.805
+ $X2=1.227 $Y2=1.96
r217 39 63 15.1098 $w=2.23e-07 $l=2.95e-07 $layer=LI1_cond $X=1.227 $Y=0.805
+ $X2=1.227 $Y2=0.51
r218 38 41 0.115467 $w=2.3e-07 $l=1.45e-07 $layer=MET1_cond $X=1.25 $Y=0.805
+ $X2=1.395 $Y2=0.805
r219 38 39 9.3 $w=1.7e-07 $l=1.7e-07 $layer=mcon $count=1 $X=1.25 $Y=0.805
+ $X2=1.25 $Y2=0.805
r220 36 51 2.82178 $w=1.4e-07 $l=2.28e-06 $layer=MET1_cond $X=3.385 $Y=1.19
+ $X2=5.665 $Y2=1.19
r221 34 36 0.0739737 $w=1.4e-07 $l=1.38651e-07 $layer=MET1_cond $X=3.277 $Y=1.12
+ $X2=3.385 $Y2=1.19
r222 34 47 0.142799 $w=2.15e-07 $l=2e-07 $layer=MET1_cond $X=3.277 $Y=1.12
+ $X2=3.277 $Y2=0.92
r223 31 46 0.0513368 $w=1.4e-07 $l=1.45e-07 $layer=MET1_cond $X=3.095 $Y=0.85
+ $X2=3.24 $Y2=0.85
r224 31 41 2.10396 $w=1.4e-07 $l=1.7e-06 $layer=MET1_cond $X=3.095 $Y=0.85
+ $X2=1.395 $Y2=0.85
r225 29 54 34.4369 $w=2.7e-07 $l=1.55e-07 $layer=POLY_cond $X=5.97 $Y=1.26
+ $X2=5.815 $Y2=1.26
r226 29 30 0.63749 $w=2.7e-07 $l=1.35e-07 $layer=POLY_cond $X=5.97 $Y=1.26
+ $X2=5.97 $Y2=1.125
r227 26 28 76.3167 $w=1.8e-07 $l=2.85e-07 $layer=POLY_cond $X=6.13 $Y=1.99
+ $X2=6.13 $Y2=2.275
r228 22 30 28.793 $w=1.75e-07 $l=1.45e-07 $layer=POLY_cond $X=6.115 $Y=1.125
+ $X2=5.97 $Y2=1.125
r229 22 24 348.681 $w=1.5e-07 $l=6.8e-07 $layer=POLY_cond $X=6.115 $Y=1.125
+ $X2=6.115 $Y2=0.445
r230 21 26 33.5616 $w=2e-07 $l=1e-07 $layer=POLY_cond $X=6.13 $Y=1.89 $X2=6.13
+ $Y2=1.99
r231 20 30 28.793 $w=1.75e-07 $l=4.02119e-07 $layer=POLY_cond $X=6.13 $Y=1.455
+ $X2=5.97 $Y2=1.125
r232 20 21 144.236 $w=2e-07 $l=4.35e-07 $layer=POLY_cond $X=6.13 $Y=1.455
+ $X2=6.13 $Y2=1.89
r233 19 61 76.9149 $w=1.5e-07 $l=1.5e-07 $layer=POLY_cond $X=3.105 $Y=1.245
+ $X2=3.105 $Y2=1.095
r234 16 60 179.468 $w=1.5e-07 $l=3.5e-07 $layer=POLY_cond $X=3.105 $Y=0.415
+ $X2=3.105 $Y2=0.765
r235 12 19 26.9307 $w=1.5e-07 $l=1.06066e-07 $layer=POLY_cond $X=3.03 $Y=1.32
+ $X2=3.105 $Y2=1.245
r236 12 13 225.617 $w=1.5e-07 $l=4.4e-07 $layer=POLY_cond $X=3.03 $Y=1.32
+ $X2=2.59 $Y2=1.32
r237 9 11 76.3167 $w=1.8e-07 $l=2.85e-07 $layer=POLY_cond $X=2.49 $Y=1.99
+ $X2=2.49 $Y2=2.275
r238 8 9 33.5616 $w=2e-07 $l=1e-07 $layer=POLY_cond $X=2.49 $Y=1.89 $X2=2.49
+ $Y2=1.99
r239 7 13 27.6518 $w=1.5e-07 $l=1.32288e-07 $layer=POLY_cond $X=2.49 $Y=1.395
+ $X2=2.59 $Y2=1.32
r240 7 8 164.131 $w=2e-07 $l=4.95e-07 $layer=POLY_cond $X=2.49 $Y=1.395 $X2=2.49
+ $Y2=1.89
r241 2 67 300 $w=1.7e-07 $l=2.05061e-07 $layer=licon1_PDIFF $count=2 $X=1.055
+ $Y=1.815 $X2=1.2 $Y2=1.96
r242 1 63 182 $w=1.7e-07 $l=3.35783e-07 $layer=licon1_NDIFF $count=1 $X=1.065
+ $Y=0.235 $X2=1.2 $Y2=0.51
.ends

.subckt PM_SKY130_FD_SC_HDLL__DFSTP_4%A_702_21# 1 2 9 11 13 14 18 20 24 27 29 34
+ 36
c108 36 0 2.23858e-19 $X=4.95 $Y=1.065
c109 34 0 2.11834e-19 $X=4.425 $Y=1.96
c110 29 0 1.15651e-19 $X=3.695 $Y=1.74
r111 35 36 12.2447 $w=3.18e-07 $l=3.4e-07 $layer=LI1_cond $X=4.95 $Y=0.725
+ $X2=4.95 $Y2=1.065
r112 29 32 8.45125 $w=2.98e-07 $l=2.2e-07 $layer=LI1_cond $X=3.76 $Y=1.74
+ $X2=3.76 $Y2=1.96
r113 29 30 145.28 $w=1.7e-07 $l=1.7e-07 $layer=licon1_POLY $count=1 $X=3.695
+ $Y=1.74 $X2=3.695 $Y2=1.74
r114 27 36 50.2353 $w=1.68e-07 $l=7.7e-07 $layer=LI1_cond $X=5.025 $Y=1.835
+ $X2=5.025 $Y2=1.065
r115 24 35 17.2888 $w=1.68e-07 $l=2.65e-07 $layer=LI1_cond $X=4.875 $Y=0.46
+ $X2=4.875 $Y2=0.725
r116 21 34 3.70735 $w=2.5e-07 $l=8.5e-08 $layer=LI1_cond $X=4.51 $Y=1.96
+ $X2=4.425 $Y2=1.96
r117 20 27 7.14316 $w=2.5e-07 $l=1.62019e-07 $layer=LI1_cond $X=4.94 $Y=1.96
+ $X2=5.025 $Y2=1.835
r118 20 21 19.822 $w=2.48e-07 $l=4.3e-07 $layer=LI1_cond $X=4.94 $Y=1.96
+ $X2=4.51 $Y2=1.96
r119 16 34 2.76166 $w=1.7e-07 $l=1.25e-07 $layer=LI1_cond $X=4.425 $Y=2.085
+ $X2=4.425 $Y2=1.96
r120 16 18 8.15508 $w=1.68e-07 $l=1.25e-07 $layer=LI1_cond $X=4.425 $Y=2.085
+ $X2=4.425 $Y2=2.21
r121 15 32 1.80669 $w=2.5e-07 $l=1.5e-07 $layer=LI1_cond $X=3.91 $Y=1.96
+ $X2=3.76 $Y2=1.96
r122 14 34 3.70735 $w=2.5e-07 $l=8.5e-08 $layer=LI1_cond $X=4.34 $Y=1.96
+ $X2=4.425 $Y2=1.96
r123 14 15 19.822 $w=2.48e-07 $l=4.3e-07 $layer=LI1_cond $X=4.34 $Y=1.96
+ $X2=3.91 $Y2=1.96
r124 11 30 46.2237 $w=3.35e-07 $l=2.89396e-07 $layer=POLY_cond $X=3.61 $Y=1.99
+ $X2=3.695 $Y2=1.74
r125 11 13 76.3167 $w=1.8e-07 $l=2.85e-07 $layer=POLY_cond $X=3.61 $Y=1.99
+ $X2=3.61 $Y2=2.275
r126 7 30 38.6365 $w=3.35e-07 $l=2.13014e-07 $layer=POLY_cond $X=3.585 $Y=1.575
+ $X2=3.695 $Y2=1.74
r127 7 9 579.426 $w=1.5e-07 $l=1.13e-06 $layer=POLY_cond $X=3.585 $Y=1.575
+ $X2=3.585 $Y2=0.445
r128 2 18 600 $w=1.7e-07 $l=2.05061e-07 $layer=licon1_PDIFF $count=1 $X=4.28
+ $Y=2.065 $X2=4.425 $Y2=2.21
r129 1 24 182 $w=1.7e-07 $l=3.03727e-07 $layer=licon1_NDIFF $count=1 $X=4.69
+ $Y=0.235 $X2=4.875 $Y2=0.46
.ends

.subckt PM_SKY130_FD_SC_HDLL__DFSTP_4%SET_B 2 3 5 8 12 17 18 20 21 22 23 24 26
+ 29 34 37 38 44
c130 44 0 7.40925e-20 $X=4.365 $Y=0.85
c131 26 0 1.71107e-19 $X=7.59 $Y=0.85
c132 24 0 3.91725e-20 $X=4.51 $Y=0.85
c133 23 0 1.86694e-20 $X=7.445 $Y=0.85
c134 8 0 1.90694e-19 $X=4.255 $Y=0.445
c135 3 0 1.15651e-19 $X=4.19 $Y=1.99
r136 37 40 37.8241 $w=3.2e-07 $l=1.65e-07 $layer=POLY_cond $X=7.45 $Y=0.98
+ $X2=7.45 $Y2=1.145
r137 37 39 46.1509 $w=3.2e-07 $l=1.65e-07 $layer=POLY_cond $X=7.45 $Y=0.98
+ $X2=7.45 $Y2=0.815
r138 37 38 145.28 $w=1.7e-07 $l=1.7e-07 $layer=licon1_POLY $count=1 $X=7.425
+ $Y=0.98 $X2=7.425 $Y2=0.98
r139 34 35 10.074 $w=3.11e-07 $l=6.5e-08 $layer=POLY_cond $X=4.19 $Y=0.98
+ $X2=4.255 $Y2=0.98
r140 33 44 10.1275 $w=3.28e-07 $l=2.9e-07 $layer=LI1_cond $X=4.075 $Y=0.9
+ $X2=4.365 $Y2=0.9
r141 32 34 17.8232 $w=3.11e-07 $l=1.15e-07 $layer=POLY_cond $X=4.075 $Y=0.98
+ $X2=4.19 $Y2=0.98
r142 32 33 145.28 $w=1.7e-07 $l=1.7e-07 $layer=licon1_POLY $count=1 $X=4.075
+ $Y=0.98 $X2=4.075 $Y2=0.98
r143 29 44 9.3 $w=1.7e-07 $l=1.7e-07 $layer=mcon $count=1 $X=4.365 $Y=0.85
+ $X2=4.365 $Y2=0.85
r144 26 38 9.3 $w=1.7e-07 $l=1.7e-07 $layer=mcon $count=1 $X=7.59 $Y=0.85
+ $X2=7.59 $Y2=0.85
r145 24 29 0.115467 $w=2.3e-07 $l=1.45e-07 $layer=MET1_cond $X=4.51 $Y=0.85
+ $X2=4.365 $Y2=0.85
r146 23 26 0.115467 $w=2.3e-07 $l=1.45e-07 $layer=MET1_cond $X=7.445 $Y=0.85
+ $X2=7.59 $Y2=0.85
r147 23 24 3.63242 $w=1.4e-07 $l=2.935e-06 $layer=MET1_cond $X=7.445 $Y=0.85
+ $X2=4.51 $Y2=0.85
r148 21 22 43.7534 $w=2.2e-07 $l=1.5e-07 $layer=POLY_cond $X=7.52 $Y=1.535
+ $X2=7.52 $Y2=1.685
r149 21 40 129.315 $w=2e-07 $l=3.9e-07 $layer=POLY_cond $X=7.51 $Y=1.535
+ $X2=7.51 $Y2=1.145
r150 18 20 76.3167 $w=1.8e-07 $l=2.85e-07 $layer=POLY_cond $X=7.53 $Y=1.99
+ $X2=7.53 $Y2=2.275
r151 17 18 33.5616 $w=2e-07 $l=1e-07 $layer=POLY_cond $X=7.53 $Y=1.89 $X2=7.53
+ $Y2=1.99
r152 17 22 67.9733 $w=2e-07 $l=2.05e-07 $layer=POLY_cond $X=7.53 $Y=1.89
+ $X2=7.53 $Y2=1.685
r153 12 39 189.723 $w=1.5e-07 $l=3.7e-07 $layer=POLY_cond $X=7.365 $Y=0.445
+ $X2=7.365 $Y2=0.815
r154 6 35 19.8172 $w=1.5e-07 $l=1.65e-07 $layer=POLY_cond $X=4.255 $Y=0.815
+ $X2=4.255 $Y2=0.98
r155 6 8 189.723 $w=1.5e-07 $l=3.7e-07 $layer=POLY_cond $X=4.255 $Y=0.815
+ $X2=4.255 $Y2=0.445
r156 3 5 76.3167 $w=1.8e-07 $l=2.85e-07 $layer=POLY_cond $X=4.19 $Y=1.99
+ $X2=4.19 $Y2=2.275
r157 2 3 33.5616 $w=2e-07 $l=1e-07 $layer=POLY_cond $X=4.19 $Y=1.89 $X2=4.19
+ $Y2=1.99
r158 1 34 13.1188 $w=2e-07 $l=1.65e-07 $layer=POLY_cond $X=4.19 $Y=1.145
+ $X2=4.19 $Y2=0.98
r159 1 2 247.025 $w=2e-07 $l=7.45e-07 $layer=POLY_cond $X=4.19 $Y=1.145 $X2=4.19
+ $Y2=1.89
.ends

.subckt PM_SKY130_FD_SC_HDLL__DFSTP_4%A_506_47# 1 2 7 9 11 13 14 16 17 20 21 23
+ 24 26 27 28 32 37 39 40 45 46 56
c160 56 0 1.34022e-19 $X=5.13 $Y=1.4
c161 46 0 3.91725e-20 $X=4.62 $Y=1.32
c162 45 0 4.36039e-20 $X=3.74 $Y=1.317
c163 24 0 3.31643e-20 $X=5.705 $Y=0.735
c164 17 0 1.50733e-19 $X=5.63 $Y=0.825
r165 55 56 82.1848 $w=3.3e-07 $l=4.7e-07 $layer=POLY_cond $X=4.66 $Y=1.4
+ $X2=5.13 $Y2=1.4
r166 54 55 3.49723 $w=3.3e-07 $l=2e-08 $layer=POLY_cond $X=4.64 $Y=1.4 $X2=4.66
+ $Y2=1.4
r167 50 54 0.874306 $w=3.3e-07 $l=5e-09 $layer=POLY_cond $X=4.635 $Y=1.4
+ $X2=4.64 $Y2=1.4
r168 49 50 145.28 $w=1.7e-07 $l=1.7e-07 $layer=licon1_POLY $count=1 $X=4.635
+ $Y=1.4 $X2=4.635 $Y2=1.4
r169 46 49 3.07318 $w=2.98e-07 $l=8e-08 $layer=LI1_cond $X=4.62 $Y=1.32 $X2=4.62
+ $Y2=1.4
r170 40 46 4.061 $w=1.7e-07 $l=1.5e-07 $layer=LI1_cond $X=4.47 $Y=1.32 $X2=4.62
+ $Y2=1.32
r171 40 45 47.6257 $w=1.68e-07 $l=7.3e-07 $layer=LI1_cond $X=4.47 $Y=1.32
+ $X2=3.74 $Y2=1.32
r172 39 45 6.97143 $w=1.73e-07 $l=1.1e-07 $layer=LI1_cond $X=3.63 $Y=1.317
+ $X2=3.74 $Y2=1.317
r173 39 42 17.4286 $w=1.73e-07 $l=2.75e-07 $layer=LI1_cond $X=3.63 $Y=1.317
+ $X2=3.355 $Y2=1.317
r174 38 39 40.0736 $w=2.18e-07 $l=7.65e-07 $layer=LI1_cond $X=3.63 $Y=0.465
+ $X2=3.63 $Y2=1.23
r175 36 42 0.89264 $w=1.7e-07 $l=8.8e-08 $layer=LI1_cond $X=3.355 $Y=1.405
+ $X2=3.355 $Y2=1.317
r176 36 37 55.1283 $w=1.68e-07 $l=8.45e-07 $layer=LI1_cond $X=3.355 $Y=1.405
+ $X2=3.355 $Y2=2.25
r177 32 38 6.83662 $w=2e-07 $l=1.51987e-07 $layer=LI1_cond $X=3.52 $Y=0.365
+ $X2=3.63 $Y2=0.465
r178 32 34 40.4818 $w=1.98e-07 $l=7.3e-07 $layer=LI1_cond $X=3.52 $Y=0.365
+ $X2=2.79 $Y2=0.365
r179 28 37 6.81649 $w=1.7e-07 $l=1.20208e-07 $layer=LI1_cond $X=3.27 $Y=2.335
+ $X2=3.355 $Y2=2.25
r180 28 30 35.5561 $w=1.68e-07 $l=5.45e-07 $layer=LI1_cond $X=3.27 $Y=2.335
+ $X2=2.725 $Y2=2.335
r181 24 26 93.1867 $w=1.5e-07 $l=2.9e-07 $layer=POLY_cond $X=5.705 $Y=0.735
+ $X2=5.705 $Y2=0.445
r182 21 23 76.3167 $w=1.8e-07 $l=2.85e-07 $layer=POLY_cond $X=5.13 $Y=1.99
+ $X2=5.13 $Y2=2.275
r183 20 21 33.5616 $w=2e-07 $l=1e-07 $layer=POLY_cond $X=5.13 $Y=1.89 $X2=5.13
+ $Y2=1.99
r184 19 56 14.4873 $w=2e-07 $l=1.65e-07 $layer=POLY_cond $X=5.13 $Y=1.565
+ $X2=5.13 $Y2=1.4
r185 19 20 107.763 $w=2e-07 $l=3.25e-07 $layer=POLY_cond $X=5.13 $Y=1.565
+ $X2=5.13 $Y2=1.89
r186 18 27 4.90422 $w=1.8e-07 $l=1e-07 $layer=POLY_cond $X=4.74 $Y=0.825
+ $X2=4.64 $Y2=0.825
r187 17 24 27.2212 $w=1.8e-07 $l=1.21861e-07 $layer=POLY_cond $X=5.63 $Y=0.825
+ $X2=5.705 $Y2=0.735
r188 17 18 345.952 $w=1.8e-07 $l=8.9e-07 $layer=POLY_cond $X=5.63 $Y=0.825
+ $X2=4.74 $Y2=0.825
r189 14 16 76.3167 $w=1.8e-07 $l=2.85e-07 $layer=POLY_cond $X=4.66 $Y=1.99
+ $X2=4.66 $Y2=2.275
r190 13 14 33.5616 $w=2e-07 $l=1e-07 $layer=POLY_cond $X=4.66 $Y=1.89 $X2=4.66
+ $Y2=1.99
r191 12 55 14.4873 $w=2e-07 $l=1.65e-07 $layer=POLY_cond $X=4.66 $Y=1.565
+ $X2=4.66 $Y2=1.4
r192 12 13 107.763 $w=2e-07 $l=3.25e-07 $layer=POLY_cond $X=4.66 $Y=1.565
+ $X2=4.66 $Y2=1.89
r193 11 54 14.4873 $w=2e-07 $l=1.65e-07 $layer=POLY_cond $X=4.64 $Y=1.235
+ $X2=4.64 $Y2=1.4
r194 10 27 20.8929 $w=1.75e-07 $l=9e-08 $layer=POLY_cond $X=4.64 $Y=0.915
+ $X2=4.64 $Y2=0.825
r195 10 11 106.105 $w=2e-07 $l=3.2e-07 $layer=POLY_cond $X=4.64 $Y=0.915
+ $X2=4.64 $Y2=1.235
r196 7 27 20.8929 $w=1.75e-07 $l=1.01735e-07 $layer=POLY_cond $X=4.615 $Y=0.735
+ $X2=4.64 $Y2=0.825
r197 7 9 93.1867 $w=1.5e-07 $l=2.9e-07 $layer=POLY_cond $X=4.615 $Y=0.735
+ $X2=4.615 $Y2=0.445
r198 2 30 600 $w=1.7e-07 $l=3.34739e-07 $layer=licon1_PDIFF $count=1 $X=2.58
+ $Y=2.065 $X2=2.725 $Y2=2.335
r199 1 34 182 $w=1.7e-07 $l=3.245e-07 $layer=licon1_NDIFF $count=1 $X=2.53
+ $Y=0.235 $X2=2.79 $Y2=0.38
.ends

.subckt PM_SKY130_FD_SC_HDLL__DFSTP_4%A_1288_261# 1 2 7 9 12 21 24 28 31 32
c72 31 0 1.7977e-19 $X=8.21 $Y=1.67
c73 24 0 1.58039e-19 $X=8.445 $Y=1.575
c74 7 0 5.96505e-20 $X=6.54 $Y=1.99
r75 30 32 8.75598 $w=1.88e-07 $l=1.5e-07 $layer=LI1_cond $X=8.295 $Y=1.67
+ $X2=8.445 $Y2=1.67
r76 30 31 5.10991 $w=1.88e-07 $l=8.5e-08 $layer=LI1_cond $X=8.295 $Y=1.67
+ $X2=8.21 $Y2=1.67
r77 26 28 5.23838 $w=3.28e-07 $l=1.5e-07 $layer=LI1_cond $X=8.295 $Y=0.515
+ $X2=8.445 $Y2=0.515
r78 24 32 0.0965754 $w=2.1e-07 $l=9.5e-08 $layer=LI1_cond $X=8.445 $Y=1.575
+ $X2=8.445 $Y2=1.67
r79 23 28 3.38185 $w=2.1e-07 $l=1.65e-07 $layer=LI1_cond $X=8.445 $Y=0.68
+ $X2=8.445 $Y2=0.515
r80 23 24 47.2684 $w=2.08e-07 $l=8.95e-07 $layer=LI1_cond $X=8.445 $Y=0.68
+ $X2=8.445 $Y2=1.575
r81 19 30 1.386 $w=1.7e-07 $l=9.5e-08 $layer=LI1_cond $X=8.295 $Y=1.765
+ $X2=8.295 $Y2=1.67
r82 19 21 6.85027 $w=1.68e-07 $l=1.05e-07 $layer=LI1_cond $X=8.295 $Y=1.765
+ $X2=8.295 $Y2=1.87
r83 16 31 103.406 $w=1.68e-07 $l=1.585e-06 $layer=LI1_cond $X=6.625 $Y=1.66
+ $X2=8.21 $Y2=1.66
r84 16 17 145.28 $w=1.7e-07 $l=1.7e-07 $layer=licon1_POLY $count=1 $X=6.625
+ $Y=1.66 $X2=6.625 $Y2=1.66
r85 10 17 62.9618 $w=3.88e-07 $l=4.61519e-07 $layer=POLY_cond $X=7.005 $Y=1.305
+ $X2=6.76 $Y2=1.66
r86 10 12 440.979 $w=1.5e-07 $l=8.6e-07 $layer=POLY_cond $X=7.005 $Y=1.305
+ $X2=7.005 $Y2=0.445
r87 7 17 54.9609 $w=3.88e-07 $l=4.26028e-07 $layer=POLY_cond $X=6.54 $Y=1.99
+ $X2=6.76 $Y2=1.66
r88 7 9 76.3167 $w=1.8e-07 $l=2.85e-07 $layer=POLY_cond $X=6.54 $Y=1.99 $X2=6.54
+ $Y2=2.275
r89 2 21 300 $w=1.7e-07 $l=2.88531e-07 $layer=licon1_PDIFF $count=2 $X=8.15
+ $Y=1.645 $X2=8.295 $Y2=1.87
r90 1 26 182 $w=1.7e-07 $l=3.40881e-07 $layer=licon1_NDIFF $count=1 $X=8.16
+ $Y=0.235 $X2=8.295 $Y2=0.515
.ends

.subckt PM_SKY130_FD_SC_HDLL__DFSTP_4%A_1126_413# 1 2 3 10 12 15 17 18 20 21 23
+ 26 28 29 34 35 39 40 41 44 49 51 54 56 58
c163 54 0 9.39049e-20 $X=7.005 $Y=1.32
c164 10 0 1.58039e-19 $X=8.06 $Y=1.57
r165 61 62 2.90361 $w=4.15e-07 $l=2.5e-08 $layer=POLY_cond $X=8.06 $Y=1.332
+ $X2=8.085 $Y2=1.332
r166 57 61 12.1952 $w=4.15e-07 $l=1.05e-07 $layer=POLY_cond $X=7.955 $Y=1.332
+ $X2=8.06 $Y2=1.332
r167 56 58 9.07524 $w=2.28e-07 $l=1.65e-07 $layer=LI1_cond $X=7.955 $Y=1.29
+ $X2=7.79 $Y2=1.29
r168 56 57 145.28 $w=1.7e-07 $l=1.7e-07 $layer=licon1_POLY $count=1 $X=7.955
+ $Y=1.26 $X2=7.955 $Y2=1.26
r169 47 49 6.00231 $w=2.38e-07 $l=1.25e-07 $layer=LI1_cond $X=7.26 $Y=2.085
+ $X2=7.26 $Y2=2.21
r170 46 54 5.16603 $w=1.7e-07 $l=8.5e-08 $layer=LI1_cond $X=7.09 $Y=1.32
+ $X2=7.005 $Y2=1.32
r171 46 58 45.6684 $w=1.68e-07 $l=7e-07 $layer=LI1_cond $X=7.09 $Y=1.32 $X2=7.79
+ $Y2=1.32
r172 44 54 1.34256 $w=1.7e-07 $l=8.5e-08 $layer=LI1_cond $X=7.005 $Y=1.235
+ $X2=7.005 $Y2=1.32
r173 43 44 49.5829 $w=1.68e-07 $l=7.6e-07 $layer=LI1_cond $X=7.005 $Y=0.475
+ $X2=7.005 $Y2=1.235
r174 42 51 2.2496 $w=1.7e-07 $l=1.1e-07 $layer=LI1_cond $X=6.29 $Y=2 $X2=6.18
+ $Y2=2
r175 41 47 7.07814 $w=1.7e-07 $l=1.56844e-07 $layer=LI1_cond $X=7.14 $Y=2
+ $X2=7.26 $Y2=2.085
r176 41 42 55.4545 $w=1.68e-07 $l=8.5e-07 $layer=LI1_cond $X=7.14 $Y=2 $X2=6.29
+ $Y2=2
r177 39 54 5.16603 $w=1.7e-07 $l=8.5e-08 $layer=LI1_cond $X=6.92 $Y=1.32
+ $X2=7.005 $Y2=1.32
r178 39 40 41.1016 $w=1.68e-07 $l=6.3e-07 $layer=LI1_cond $X=6.92 $Y=1.32
+ $X2=6.29 $Y2=1.32
r179 35 43 6.81649 $w=1.7e-07 $l=1.20208e-07 $layer=LI1_cond $X=6.92 $Y=0.39
+ $X2=7.005 $Y2=0.475
r180 35 37 36.861 $w=1.68e-07 $l=5.65e-07 $layer=LI1_cond $X=6.92 $Y=0.39
+ $X2=6.355 $Y2=0.39
r181 34 51 4.45262 $w=2.18e-07 $l=8.5e-08 $layer=LI1_cond $X=6.18 $Y=1.915
+ $X2=6.18 $Y2=2
r182 33 40 6.96323 $w=1.7e-07 $l=1.46458e-07 $layer=LI1_cond $X=6.18 $Y=1.405
+ $X2=6.29 $Y2=1.32
r183 33 34 26.7157 $w=2.18e-07 $l=5.1e-07 $layer=LI1_cond $X=6.18 $Y=1.405
+ $X2=6.18 $Y2=1.915
r184 29 51 15.1913 $w=2.18e-07 $l=2.9e-07 $layer=LI1_cond $X=6.18 $Y=2.29
+ $X2=6.18 $Y2=2
r185 29 31 13.5988 $w=2.48e-07 $l=2.95e-07 $layer=LI1_cond $X=6.07 $Y=2.29
+ $X2=5.775 $Y2=2.29
r186 24 28 33.332 $w=1.75e-07 $l=1.77059e-07 $layer=POLY_cond $X=9.075 $Y=1.095
+ $X2=9.05 $Y2=1.26
r187 24 26 333.298 $w=1.5e-07 $l=6.5e-07 $layer=POLY_cond $X=9.075 $Y=1.095
+ $X2=9.075 $Y2=0.445
r188 21 23 105.772 $w=1.8e-07 $l=3.95e-07 $layer=POLY_cond $X=9.05 $Y=1.77
+ $X2=9.05 $Y2=2.165
r189 20 21 33.5616 $w=2e-07 $l=1e-07 $layer=POLY_cond $X=9.05 $Y=1.67 $X2=9.05
+ $Y2=1.77
r190 19 28 33.332 $w=1.75e-07 $l=1.65e-07 $layer=POLY_cond $X=9.05 $Y=1.425
+ $X2=9.05 $Y2=1.26
r191 19 20 81.2364 $w=2e-07 $l=2.45e-07 $layer=POLY_cond $X=9.05 $Y=1.425
+ $X2=9.05 $Y2=1.67
r192 18 62 10.8699 $w=4.15e-07 $l=1.05e-07 $layer=POLY_cond $X=8.16 $Y=1.26
+ $X2=8.085 $Y2=1.332
r193 17 28 3.18546 $w=3.3e-07 $l=1e-07 $layer=POLY_cond $X=8.95 $Y=1.26 $X2=9.05
+ $Y2=1.26
r194 17 18 138.14 $w=3.3e-07 $l=7.9e-07 $layer=POLY_cond $X=8.95 $Y=1.26
+ $X2=8.16 $Y2=1.26
r195 13 62 26.7644 $w=1.5e-07 $l=2.37e-07 $layer=POLY_cond $X=8.085 $Y=1.095
+ $X2=8.085 $Y2=1.332
r196 13 15 302.532 $w=1.5e-07 $l=5.9e-07 $layer=POLY_cond $X=8.085 $Y=1.095
+ $X2=8.085 $Y2=0.505
r197 10 61 22.3416 $w=1.8e-07 $l=2.38e-07 $layer=POLY_cond $X=8.06 $Y=1.57
+ $X2=8.06 $Y2=1.332
r198 10 12 132.55 $w=1.8e-07 $l=4.95e-07 $layer=POLY_cond $X=8.06 $Y=1.57
+ $X2=8.06 $Y2=2.065
r199 3 49 600 $w=1.7e-07 $l=1.97864e-07 $layer=licon1_PDIFF $count=1 $X=7.17
+ $Y=2.065 $X2=7.295 $Y2=2.21
r200 2 31 600 $w=1.7e-07 $l=3.29621e-07 $layer=licon1_PDIFF $count=1 $X=5.63
+ $Y=2.065 $X2=5.775 $Y2=2.33
r201 1 37 182 $w=1.7e-07 $l=2.29783e-07 $layer=licon1_NDIFF $count=1 $X=6.19
+ $Y=0.235 $X2=6.355 $Y2=0.39
.ends

.subckt PM_SKY130_FD_SC_HDLL__DFSTP_4%A_1738_47# 1 2 9 11 13 16 18 20 23 25 27
+ 30 32 34 35 37 40 46 55 59 60 61 72
r125 72 73 3.70769 $w=3.25e-07 $l=2.5e-08 $layer=POLY_cond $X=11.455 $Y=1.217
+ $X2=11.48 $Y2=1.217
r126 69 70 3.70769 $w=3.25e-07 $l=2.5e-08 $layer=POLY_cond $X=10.96 $Y=1.217
+ $X2=10.985 $Y2=1.217
r127 68 69 65.9969 $w=3.25e-07 $l=4.45e-07 $layer=POLY_cond $X=10.515 $Y=1.217
+ $X2=10.96 $Y2=1.217
r128 67 68 3.70769 $w=3.25e-07 $l=2.5e-08 $layer=POLY_cond $X=10.49 $Y=1.217
+ $X2=10.515 $Y2=1.217
r129 66 67 65.9969 $w=3.25e-07 $l=4.45e-07 $layer=POLY_cond $X=10.045 $Y=1.217
+ $X2=10.49 $Y2=1.217
r130 65 66 3.70769 $w=3.25e-07 $l=2.5e-08 $layer=POLY_cond $X=10.02 $Y=1.217
+ $X2=10.045 $Y2=1.217
r131 62 63 3.70769 $w=3.25e-07 $l=2.5e-08 $layer=POLY_cond $X=9.55 $Y=1.217
+ $X2=9.575 $Y2=1.217
r132 59 60 3.67308 $w=3.28e-07 $l=8.5e-08 $layer=LI1_cond $X=8.815 $Y=2
+ $X2=8.815 $Y2=1.915
r133 56 72 37.8185 $w=3.25e-07 $l=2.55e-07 $layer=POLY_cond $X=11.2 $Y=1.217
+ $X2=11.455 $Y2=1.217
r134 56 70 31.8862 $w=3.25e-07 $l=2.15e-07 $layer=POLY_cond $X=11.2 $Y=1.217
+ $X2=10.985 $Y2=1.217
r135 55 56 58.112 $w=1.7e-07 $l=4.25e-07 $layer=licon1_POLY $count=2 $X=11.2
+ $Y=1.16 $X2=11.2 $Y2=1.16
r136 53 65 56.3569 $w=3.25e-07 $l=3.8e-07 $layer=POLY_cond $X=9.64 $Y=1.217
+ $X2=10.02 $Y2=1.217
r137 53 63 9.64 $w=3.25e-07 $l=6.5e-08 $layer=POLY_cond $X=9.64 $Y=1.217
+ $X2=9.575 $Y2=1.217
r138 52 55 81.7187 $w=2.18e-07 $l=1.56e-06 $layer=LI1_cond $X=9.64 $Y=1.165
+ $X2=11.2 $Y2=1.165
r139 52 53 58.112 $w=1.7e-07 $l=4.25e-07 $layer=licon1_POLY $count=2 $X=9.64
+ $Y=1.16 $X2=9.64 $Y2=1.16
r140 50 61 1.80668 $w=2.2e-07 $l=1.25e-07 $layer=LI1_cond $X=8.98 $Y=1.165
+ $X2=8.855 $Y2=1.165
r141 50 52 34.5733 $w=2.18e-07 $l=6.6e-07 $layer=LI1_cond $X=8.98 $Y=1.165
+ $X2=9.64 $Y2=1.165
r142 48 61 4.63873 $w=2.5e-07 $l=1.1e-07 $layer=LI1_cond $X=8.855 $Y=1.275
+ $X2=8.855 $Y2=1.165
r143 48 60 29.5025 $w=2.48e-07 $l=6.4e-07 $layer=LI1_cond $X=8.855 $Y=1.275
+ $X2=8.855 $Y2=1.915
r144 44 61 4.63873 $w=2.5e-07 $l=1.1e-07 $layer=LI1_cond $X=8.855 $Y=1.055
+ $X2=8.855 $Y2=1.165
r145 44 46 25.1233 $w=2.48e-07 $l=5.45e-07 $layer=LI1_cond $X=8.855 $Y=1.055
+ $X2=8.855 $Y2=0.51
r146 38 73 20.86 $w=1.5e-07 $l=1.92e-07 $layer=POLY_cond $X=11.48 $Y=1.025
+ $X2=11.48 $Y2=1.217
r147 38 40 238.436 $w=1.5e-07 $l=4.65e-07 $layer=POLY_cond $X=11.48 $Y=1.025
+ $X2=11.48 $Y2=0.56
r148 35 72 16.5763 $w=1.8e-07 $l=1.93e-07 $layer=POLY_cond $X=11.455 $Y=1.41
+ $X2=11.455 $Y2=1.217
r149 35 37 153.972 $w=1.8e-07 $l=5.75e-07 $layer=POLY_cond $X=11.455 $Y=1.41
+ $X2=11.455 $Y2=1.985
r150 32 70 16.5763 $w=1.8e-07 $l=1.93e-07 $layer=POLY_cond $X=10.985 $Y=1.41
+ $X2=10.985 $Y2=1.217
r151 32 34 153.972 $w=1.8e-07 $l=5.75e-07 $layer=POLY_cond $X=10.985 $Y=1.41
+ $X2=10.985 $Y2=1.985
r152 28 69 20.86 $w=1.5e-07 $l=1.92e-07 $layer=POLY_cond $X=10.96 $Y=1.025
+ $X2=10.96 $Y2=1.217
r153 28 30 238.436 $w=1.5e-07 $l=4.65e-07 $layer=POLY_cond $X=10.96 $Y=1.025
+ $X2=10.96 $Y2=0.56
r154 25 68 16.5763 $w=1.8e-07 $l=1.93e-07 $layer=POLY_cond $X=10.515 $Y=1.41
+ $X2=10.515 $Y2=1.217
r155 25 27 153.972 $w=1.8e-07 $l=5.75e-07 $layer=POLY_cond $X=10.515 $Y=1.41
+ $X2=10.515 $Y2=1.985
r156 21 67 20.86 $w=1.5e-07 $l=1.92e-07 $layer=POLY_cond $X=10.49 $Y=1.025
+ $X2=10.49 $Y2=1.217
r157 21 23 238.436 $w=1.5e-07 $l=4.65e-07 $layer=POLY_cond $X=10.49 $Y=1.025
+ $X2=10.49 $Y2=0.56
r158 18 66 16.5763 $w=1.8e-07 $l=1.93e-07 $layer=POLY_cond $X=10.045 $Y=1.41
+ $X2=10.045 $Y2=1.217
r159 18 20 153.972 $w=1.8e-07 $l=5.75e-07 $layer=POLY_cond $X=10.045 $Y=1.41
+ $X2=10.045 $Y2=1.985
r160 14 65 20.86 $w=1.5e-07 $l=1.92e-07 $layer=POLY_cond $X=10.02 $Y=1.025
+ $X2=10.02 $Y2=1.217
r161 14 16 238.436 $w=1.5e-07 $l=4.65e-07 $layer=POLY_cond $X=10.02 $Y=1.025
+ $X2=10.02 $Y2=0.56
r162 11 63 16.5763 $w=1.8e-07 $l=1.93e-07 $layer=POLY_cond $X=9.575 $Y=1.41
+ $X2=9.575 $Y2=1.217
r163 11 13 153.972 $w=1.8e-07 $l=5.75e-07 $layer=POLY_cond $X=9.575 $Y=1.41