* Copyright 2020 The SkyWater PDK Authors
*
* Licensed under the Apache License, Version 2.0 (the "License");
* you may not use this file except in compliance with the License.
* You may obtain a copy of the License at
*
*     https://www.apache.org/licenses/LICENSE-2.0
*
* Unless required by applicable law or agreed to in writing, software
* distributed under the License is distributed on an "AS IS" BASIS,
* WITHOUT WARRANTIES OR CONDITIONS OF ANY KIND, either express or implied.
* See the License for the specific language governing permissions and
* limitations under the License.
*
* SPDX-License-Identifier: Apache-2.0


.subckt sky130_fd_sc_hdll__o22ai_2 B2 B1 Y A1 A2 VPB VNB VGND VPWR
M1000 Y A2 a_515_297# VPB phighvt w=1e+06u l=180000u
+  ad=5.8e+11p pd=5.16e+06u as=8.7e+11p ps=7.74e+06u
M1001 VPWR B1 a_27_297# VPB phighvt w=1e+06u l=180000u
+  ad=5.8e+11p pd=5.16e+06u as=8.7e+11p ps=7.74e+06u
M1002 a_27_47# A2 VGND VNB nshort w=650000u l=150000u
+  ad=1.2415e+12p pd=1.032e+07u as=4.81e+11p ps=4.08e+06u
M1003 a_27_297# B2 Y VPB phighvt w=1e+06u l=180000u
+  ad=0p pd=0u as=0p ps=0u
M1004 VGND A1 a_27_47# VNB nshort w=650000u l=150000u
+  ad=0p pd=0u as=0p ps=0u
M1005 Y B2 a_27_297# VPB phighvt w=1e+06u l=180000u
+  ad=0p pd=0u as=0p ps=0u
M1006 Y B1 a_27_47# VNB nshort w=650000u l=150000u
+  ad=4.81e+11p pd=4.08e+06u as=0p ps=0u
M1007 a_27_47# B2 Y VNB nshort w=650000u l=150000u
+  ad=0p pd=0u as=0p ps=0u
M1008 a_515_297# A1 VPWR VPB phighvt w=1e+06u l=180000u
+  ad=0p pd=0u as=0p ps=0u
M1009 VGND A2 a_27_47# VNB nshort w=650000u l=150000u
+  ad=0p pd=0u as=0p ps=0u
M1010 VPWR A1 a_515_297# VPB phighvt w=1e+06u l=180000u
+  ad=0p pd=0u as=0p ps=0u
M1011 a_27_297# B1 VPWR VPB phighvt w=1e+06u l=180000u
+  ad=0p pd=0u as=0p ps=0u
M1012 Y B2 a_27_47# VNB nshort w=650000u l=150000u
+  ad=0p pd=0u as=0p ps=0u
M1013 a_27_47# B1 Y VNB nshort w=650000u l=150000u
+  ad=0p pd=0u as=0p ps=0u
M1014 a_27_47# A1 VGND VNB nshort w=650000u l=150000u
+  ad=0p pd=0u as=0p ps=0u
M1015 a_515_297# A2 Y VPB phighvt w=1e+06u l=180000u
+  ad=0p pd=0u as=0p ps=0u
.ends
.subckt sky130_fd_sc_hdll__nand2_1 Y B A VPB VNB VGND VPWR
M1000 Y B VPWR VPB phighvt w=1e+06u l=180000u
+  ad=2.9e+11p pd=2.58e+06u as=5.4e+11p ps=5.08e+06u
M1001 Y A a_123_47# VNB nshort w=650000u l=150000u
+  ad=2.015e+11p pd=1.92e+06u as=1.755e+11p ps=1.84e+06u
M1002 a_123_47# B VGND VNB nshort w=650000u l=150000u
+  ad=0p pd=0u as=2.015e+11p ps=1.92e+06u
M1003 VPWR A Y VPB phighvt w=1e+06u l=180000u
+  ad=0p pd=0u as=0p ps=0u
.ends
.subckt sky130_fd_sc_hdll__nor3_4 A C B Y VPB VNB VGND VPWR
M1000 Y C VGND VNB nshort w=650000u l=150000u
+  ad=1.248e+12p pd=1.164e+07u as=1.4235e+12p ps=1.348e+07u
M1001 a_497_297# B a_27_297# VPB phighvt w=1e+06u l=180000u
+  ad=1.16e+12p pd=1.032e+07u as=1.43e+12p ps=1.286e+07u
M1002 VGND C Y VNB nshort w=650000u l=150000u
+  ad=0p pd=0u as=0p ps=0u
M1003 VPWR A a_27_297# VPB phighvt w=1e+06u l=180000u
+  ad=5.8e+11p pd=5.16e+06u as=0p ps=0u
M1004 VGND A Y VNB nshort w=650000u l=150000u
+  ad=0p pd=0u as=0p ps=0u
M1005 Y B VGND VNB nshort w=650000u l=150000u
+  ad=0p pd=0u as=0p ps=0u
M1006 Y C a_497_297# VPB phighvt w=1e+06u l=180000u
+  ad=5.8e+11p pd=5.16e+06u as=0p ps=0u
M1007 VGND B Y VNB nshort w=650000u l=150000u
+  ad=0p pd=0u as=0p ps=0u
M1008 Y C VGND VNB nshort w=650000u l=150000u
+  ad=0p pd=0u as=0p ps=0u
M1009 a_27_297# A VPWR VPB phighvt w=1e+06u l=180000u
+  ad=0p pd=0u as=0p ps=0u
M1010 a_497_297# C Y VPB phighvt w=1e+06u l=180000u
+  ad=0p pd=0u as=0p ps=0u
M1011 VGND B Y VNB nshort w=650000u l=150000u
+  ad=0p pd=0u as=0p ps=0u
M1012 VPWR A a_27_297# VPB phighvt w=1e+06u l=180000u
+  ad=0p pd=0u as=0p ps=0u
M1013 Y A VGND VNB nshort w=650000u l=150000u
+  ad=0p pd=0u as=0p ps=0u
M1014 VGND A Y VNB nshort w=650000u l=150000u
+  ad=0p pd=0u as=0p ps=0u
M1015 Y C a_497_297# VPB phighvt w=1e+06u l=180000u
+  ad=0p pd=0u as=0p ps=0u
M1016 a_27_297# A VPWR VPB phighvt w=1e+06u l=180000u
+  ad=0p pd=0u as=0p ps=0u
M1017 Y B VGND VNB nshort w=650000u l=150000u
+  ad=0p pd=0u as=0p ps=0u
M1018 a_27_297# B a_497_297# VPB phighvt w=1e+06u l=180000u
+  ad=0p pd=0u as=0p ps=0u
M1019 a_497_297# B a_27_297# VPB phighvt w=1e+06u l=180000u
+  ad=0p pd=0u as=0p ps=0u
M1020 Y A VGND VNB nshort w=650000u l=150000u
+  ad=0p pd=0u as=0p ps=0u
M1021 a_497_297# C Y VPB phighvt w=1e+06u l=180000u
+  ad=0p pd=0u as=0p ps=0u
M1022 a_27_297# B a_497_297# VPB phighvt w=1e+06u l=180000u
+  ad=0p pd=0u as=0p ps=0u
M1023 VGND C Y VNB nshort w=650000u l=150000u
+  ad=0p pd=0u as=0p ps=0u
.ends
.subckt sky130_fd_sc_hdll__a21bo_1 X A1 B1_N A2 VNB VPB VGND VPWR
M1000 a_326_297# A2 VPWR VPB phighvt w=1e+06u l=180000u
+  ad=5.65e+11p pd=5.13e+06u as=6.834e+11p ps=6.52e+06u
M1001 a_412_47# A1 a_235_297# VNB nshort w=650000u l=150000u
+  ad=2.145e+11p pd=1.96e+06u as=1.755e+11p ps=1.84e+06u
M1002 VPWR B1_N a_27_413# VPB phighvt w=420000u l=180000u
+  ad=0p pd=0u as=1.134e+11p ps=1.38e+06u
M1003 a_235_297# a_27_413# VGND VNB nshort w=650000u l=150000u
+  ad=0p pd=0u as=9.0705e+11p ps=5.49e+06u
M1004 VGND B1_N a_27_413# VNB nshort w=420000u l=150000u
+  ad=0p pd=0u as=1.323e+11p ps=1.47e+06u
M1005 X a_235_297# VGND VNB nshort w=650000u l=150000u
+  ad=2.4375e+11p pd=2.05e+06u as=0p ps=0u
M1006 VGND A2 a_412_47# VNB nshort w=650000u l=150000u
+  ad=0p pd=0u as=0p ps=0u
M1007 VPWR A1 a_326_297# VPB phighvt w=1e+06u l=180000u
+  ad=0p pd=0u as=0p ps=0u
M1008 a_326_297# a_27_413# a_235_297# VPB phighvt w=1e+06u l=180000u
+  ad=0p pd=0u as=2.75e+11p ps=2.55e+06u
M1009 X a_235_297# VPWR VPB phighvt w=1e+06u l=180000u
+  ad=3.85e+11p pd=2.77e+06u as=0p ps=0u
.ends
.subckt sky130_fd_sc_hdll__nand2b_2 B Y A_N VNB VPB VGND VPWR
M1000 a_215_47# a_27_93# Y VNB nshort w=650000u l=150000u
+  ad=5.135e+11p pd=5.48e+06u as=1.755e+11p ps=1.84e+06u
M1001 VPWR a_27_93# Y VPB phighvt w=1e+06u l=180000u
+  ad=1.0628e+12p pd=8.23e+06u as=6.5e+11p ps=5.3e+06u
M1002 Y a_27_93# a_215_47# VNB nshort w=650000u l=150000u
+  ad=0p pd=0u as=0p ps=0u
M1003 a_215_47# B VGND VNB nshort w=650000u l=150000u
+  ad=0p pd=0u as=3.172e+11p ps=3.3e+06u
M1004 VPWR B Y VPB phighvt w=1e+06u l=180000u
+  ad=0p pd=0u as=0p ps=0u
M1005 VGND B a_215_47# VNB nshort w=650000u l=150000u
+  ad=0p pd=0u as=0p ps=0u
M1006 VPWR A_N a_27_93# VPB phighvt w=420000u l=180000u
+  ad=0p pd=0u as=1.134e+11p ps=1.38e+06u
M1007 Y a_27_93# VPWR VPB phighvt w=1e+06u l=180000u
+  ad=0p pd=0u as=0p ps=0u
M1008 Y B VPWR VPB phighvt w=1e+06u l=180000u
+  ad=0p pd=0u as=0p ps=0u
M1009 VGND A_N a_27_93# VNB nshort w=420000u l=150000u
+  ad=0p pd=0u as=1.092e+11p ps=1.36e+06u
.ends
.subckt sky130_fd_sc_hdll__a31oi_1 VGND VPWR Y B1 A2 A1 A3 VPB VNB
M1000 VPWR A2 a_117_297# VPB phighvt w=1e+06u l=180000u
+  ad=5.95e+11p pd=5.19e+06u as=6.35e+11p ps=5.27e+06u
M1001 a_117_297# A1 VPWR VPB phighvt w=1e+06u l=180000u
+  ad=0p pd=0u as=0p ps=0u
M1002 a_203_47# A2 a_119_47# VNB nshort w=650000u l=150000u
+  ad=2.3075e+11p pd=2.01e+06u as=1.755e+11p ps=1.84e+06u
M1003 VGND B1 Y VNB nshort w=650000u l=150000u
+  ad=5.2e+11p pd=4.2e+06u as=2.4375e+11p ps=2.05e+06u
M1004 a_117_297# A3 VPWR VPB phighvt w=1e+06u l=180000u
+  ad=0p pd=0u as=0p ps=0u
M1005 a_119_47# A3 VGND VNB nshort w=650000u l=150000u
+  ad=0p pd=0u as=0p ps=0u
M1006 Y B1 a_117_297# VPB phighvt w=1e+06u l=180000u
+  ad=2.8e+11p pd=2.56e+06u as=0p ps=0u
M1007 Y A1 a_203_47# VNB nshort w=650000u l=150000u
+  ad=0p pd=0u as=0p ps=0u
.ends
.subckt sky130_fd_sc_hdll__mux2i_1 A1 S A0 Y VPB VNB VGND VPWR
M1000 Y A0 a_27_297# VPB phighvt w=1e+06u l=180000u
+  ad=2.9e+11p pd=2.58e+06u as=5.6e+11p ps=5.12e+06u
M1001 a_27_297# S VPWR VPB phighvt w=1e+06u l=180000u
+  ad=0p pd=0u as=8.2e+11p ps=5.64e+06u
M1002 a_207_47# A1 Y VNB nshort w=650000u l=150000u
+  ad=3.575e+11p pd=3.7e+06u as=1.755e+11p ps=1.84e+06u
M1003 VGND S a_303_205# VNB nshort w=650000u l=150000u
+  ad=3.445e+11p pd=3.66e+06u as=2.275e+11p ps=2e+06u
M1004 VPWR S a_303_205# VPB phighvt w=1e+06u l=180000u
+  ad=0p pd=0u as=3e+11p ps=2.6e+06u
M1005 Y A0 a_27_47# VNB nshort w=650000u l=150000u
+  ad=0p pd=0u as=3.835e+11p ps=3.78e+06u
M1006 VPWR a_303_205# a_215_297# VPB phighvt w=1e+06u l=180000u
+  ad=0p pd=0u as=4.5e+11p ps=2.9e+06u
M1007 a_215_297# A1 Y VPB phighvt w=1e+06u l=180000u
+  ad=0p pd=0u as=0p ps=0u
M1008 VGND a_303_205# a_27_47# VNB nshort w=650000u l=150000u
+  ad=0p pd=0u as=0p ps=0u
M1009 a_207_47# S VGND VNB nshort w=650000u l=150000u
+  ad=0p pd=0u as=0p ps=0u
.ends
.subckt sky130_fd_sc_hdll__clkbuf_16 X A VNB VPB VGND VPWR
M1000 VGND a_118_297# X VNB nshort w=420000u l=150000u
+  ad=1.4679e+12p pd=1.623e+07u as=1.1298e+12p ps=1.21e+07u
M1001 VGND a_118_297# X VNB nshort w=420000u l=150000u
+  ad=0p pd=0u as=0p ps=0u
M1002 X a_118_297# VGND VNB nshort w=420000u l=150000u
+  ad=0p pd=0u as=0p ps=0u
M1003 X a_118_297# VPWR VPB phighvt w=1e+06u l=180000u
+  ad=2.4e+12p pd=2.08e+07u as=3.245e+12p ps=2.849e+07u
M1004 VPWR a_118_297# X VPB phighvt w=1e+06u l=180000u
+  ad=0p pd=0u as=0p ps=0u
M1005 X a_118_297# VGND VNB nshort w=420000u l=150000u
+  ad=0p pd=0u as=0p ps=0u
M1006 a_118_297# A VGND VNB nshort w=420000u l=150000u
+  ad=2.772e+11p pd=3e+06u as=0p ps=0u
M1007 VGND A a_118_297# VNB nshort w=420000u l=150000u
+  ad=0p pd=0u as=0p ps=0u
M1008 VPWR a_118_297# X VPB phighvt w=1e+06u l=180000u
+  ad=0p pd=0u as=0p ps=0u
M1009 X a_118_297# VPWR VPB phighvt w=1e+06u l=180000u
+  ad=0p pd=0u as=0p ps=0u
M1010 VPWR a_118_297# X VPB phighvt w=1e+06u l=180000u
+  ad=0p pd=0u as=0p ps=0u
M1011 a_118_297# A VGND VNB nshort w=420000u l=150000u
+  ad=0p pd=0u as=0p ps=0u
M1012 VGND a_118_297# X VNB nshort w=420000u l=150000u
+  ad=0p pd=0u as=0p ps=0u
M1013 a_118_297# A VPWR VPB phighvt w=1e+06u l=180000u
+  ad=6e+11p pd=5.2e+06u as=0p ps=0u
M1014 a_118_297# A VPWR VPB phighvt w=1e+06u l=180000u
+  ad=0p pd=0u as=0p ps=0u
M1015 VPWR a_118_297# X VPB phighvt w=1e+06u l=180000u
+  ad=0p pd=0u as=0p ps=0u
M1016 X a_118_297# VPWR VPB phighvt w=1e+06u l=180000u
+  ad=0p pd=0u as=0p ps=0u
M1017 X a_118_297# VGND VNB nshort w=420000u l=150000u
+  ad=0p pd=0u as=0p ps=0u
M1018 VPWR a_118_297# X VPB phighvt w=1e+06u l=180000u
+  ad=0p pd=0u as=0p ps=0u
M1019 VGND a_118_297# X VNB nshort w=420000u l=150000u
+  ad=0p pd=0u as=0p ps=0u
M1020 VGND a_118_297# X VNB nshort w=420000u l=150000u
+  ad=0p pd=0u as=0p ps=0u
M1021 X a_118_297# VGND VNB nshort w=420000u l=150000u
+  ad=0p pd=0u as=0p ps=0u
M1022 X a_118_297# VPWR VPB phighvt w=1e+06u l=180000u
+  ad=0p pd=0u as=0p ps=0u
M1023 VGND A a_118_297# VNB nshort w=420000u l=150000u
+  ad=0p pd=0u as=0p ps=0u
M1024 X a_118_297# VGND VNB nshort w=420000u l=150000u
+  ad=0p pd=0u as=0p ps=0u
M1025 VPWR a_118_297# X VPB phighvt w=1e+06u l=180000u
+  ad=0p pd=0u as=0p ps=0u
M1026 X a_118_297# VPWR VPB phighvt w=1e+06u l=180000u
+  ad=0p pd=0u as=0p ps=0u
M1027 VGND a_118_297# X VNB nshort w=420000u l=150000u
+  ad=0p pd=0u as=0p ps=0u
M1028 VPWR a_118_297# X VPB phighvt w=1e+06u l=180000u
+  ad=0p pd=0u as=0p ps=0u
M1029 VPWR a_118_297# X VPB phighvt w=1e+06u l=180000u
+  ad=0p pd=0u as=0p ps=0u
M1030 VPWR A a_118_297# VPB phighvt w=1e+06u l=180000u
+  ad=0p pd=0u as=0p ps=0u
M1031 X a_118_297# VPWR VPB phighvt w=1e+06u l=180000u
+  ad=0p pd=0u as=0p ps=0u
M1032 X a_118_297# VGND VNB nshort w=420000u l=150000u
+  ad=0p pd=0u as=0p ps=0u
M1033 X a_118_297# VGND VNB nshort w=420000u l=150000u
+  ad=0p pd=0u as=0p ps=0u
M1034 VPWR A a_118_297# VPB phighvt w=1e+06u l=180000u
+  ad=0p pd=0u as=0p ps=0u
M1035 X a_118_297# VPWR VPB phighvt w=1e+06u l=180000u
+  ad=0p pd=0u as=0p ps=0u
M1036 VGND a_118_297# X VNB nshort w=420000u l=150000u
+  ad=0p pd=0u as=0p ps=0u
M1037 X a_118_297# VGND VNB nshort w=420000u l=150000u
+  ad=0p pd=0u as=0p ps=0u
M1038 X a_118_297# VPWR VPB phighvt w=1e+06u l=180000u
+  ad=0p pd=0u as=0p ps=0u
M1039 VGND a_118_297# X VNB nshort w=420000u l=150000u
+  ad=0p pd=0u as=0p ps=0u
.ends
.subckt sky130_fd_sc_hdll__o211ai_2 A1 A2 B1 Y C1 VNB VPB VGND VPWR
M1000 a_316_47# B1 a_27_47# VNB nshort w=650000u l=150000u
+  ad=6.63e+11p pd=5.94e+06u as=6.175e+11p ps=5.8e+06u
M1001 Y A2 a_527_297# VPB phighvt w=1e+06u l=180000u
+  ad=9e+11p pd=7.8e+06u as=8.5e+11p ps=7.7e+06u
M1002 a_27_47# B1 a_316_47# VNB nshort w=650000u l=150000u
+  ad=0p pd=0u as=0p ps=0u
M1003 VPWR C1 Y VPB phighvt w=1e+06u l=180000u
+  ad=1.15e+12p pd=1.03e+07u as=0p ps=0u
M1004 a_316_47# A2 VGND VNB nshort w=650000u l=150000u
+  ad=0p pd=0u as=6.1425e+11p ps=5.79e+06u
M1005 VPWR A1 a_527_297# VPB phighvt w=1e+06u l=180000u
+  ad=0p pd=0u as=0p ps=0u
M1006 VPWR B1 Y VPB phighvt w=1e+06u l=180000u
+  ad=0p pd=0u as=0p ps=0u
M1007 a_27_47# C1 Y VNB nshort w=650000u l=150000u
+  ad=0p pd=0u as=2.145e+11p ps=1.96e+06u
M1008 a_527_297# A2 Y VPB phighvt w=1e+06u l=180000u
+  ad=0p pd=0u as=0p ps=0u
M1009 a_316_47# A1 VGND VNB nshort w=650000u l=150000u
+  ad=0p pd=0u as=0p ps=0u
M1010 VGND A1 a_316_47# VNB nshort w=650000u l=150000u
+  ad=0p pd=0u as=0p ps=0u
M1011 VGND A2 a_316_47# VNB nshort w=650000u l=150000u
+  ad=0p pd=0u as=0p ps=0u
M1012 a_527_297# A1 VPWR VPB phighvt w=1e+06u l=180000u
+  ad=0p pd=0u as=0p ps=0u
M1013 Y C1 a_27_47# VNB nshort w=650000u l=150000u
+  ad=0p pd=0u as=0p ps=0u
M1014 Y C1 VPWR VPB phighvt w=1e+06u l=180000u
+  ad=0p pd=0u as=0p ps=0u
M1015 Y B1 VPWR VPB phighvt w=1e+06u l=180000u
+  ad=0p pd=0u as=0p ps=0u
.ends
.subckt sky130_fd_sc_hdll__or2b_1 A B_N X VGND VPWR VNB VPB
M1000 VGND B_N a_27_53# VNB nshort w=420000u l=150000u
+  ad=5.7225e+11p pd=4.52e+06u as=1.302e+11p ps=1.46e+06u
M1001 X a_229_297# VGND VNB nshort w=650000u l=150000u
+  ad=1.755e+11p pd=1.84e+06u as=0p ps=0u
M1002 a_27_53# B_N VPWR VPB phighvt w=420000u l=180000u
+  ad=1.218e+11p pd=1.42e+06u as=4.241e+11p ps=4.1e+06u
M1003 a_319_297# a_27_53# a_229_297# VPB phighvt w=420000u l=180000u
+  ad=9.66e+10p pd=1.3e+06u as=1.134e+11p ps=1.38e+06u
M1004 VGND A a_229_297# VNB nshort w=420000u l=150000u
+  ad=0p pd=0u as=1.344e+11p ps=1.48e+06u
M1005 VPWR A a_319_297# VPB phighvt w=420000u l=180000u
+  ad=0p pd=0u as=0p ps=0u
M1006 a_229_297# a_27_53# VGND VNB nshort w=420000u l=150000u
+  ad=0p pd=0u as=0p ps=0u
M1007 X a_229_297# VPWR VPB phighvt w=1e+06u l=180000u
+  ad=2.8e+11p pd=2.56e+06u as=0p ps=0u
.ends
.subckt sky130_fd_sc_hdll__dlrtn_1 RESET_B D GATE_N Q VGND VPWR VPB VNB
M1000 VGND a_750_21# a_708_47# VNB nshort w=420000u l=150000u
+  ad=5.6425e+11p pd=6.14e+06u as=8.82e+10p ps=1.26e+06u
M1001 VPWR GATE_N a_27_363# VPB phighvt w=640000u l=180000u
+  ad=1.131e+12p pd=9.75e+06u as=1.728e+11p ps=1.82e+06u
M1002 a_203_47# a_27_363# VGND VNB nshort w=420000u l=150000u
+  ad=1.092e+11p pd=1.36e+06u as=0p ps=0u
M1003 VPWR a_750_21# a_702_413# VPB phighvt w=420000u l=180000u
+  ad=0p pd=0u as=1.26e+11p ps=1.44e+06u
M1004 a_503_369# a_319_369# VPWR VPB phighvt w=640000u l=180000u
+  ad=2.021e+11p pd=1.97e+06u as=0p ps=0u
M1005 a_708_47# a_203_47# a_604_47# VNB nshort w=420000u l=150000u
+  ad=0p pd=0u as=1.482e+11p ps=1.58e+06u
M1006 Q a_750_21# VPWR VPB phighvt w=1e+06u l=180000u
+  ad=2.7e+11p pd=2.54e+06u as=0p ps=0u
M1007 VGND D a_319_369# VNB nshort w=420000u l=150000u
+  ad=0p pd=0u as=1.092e+11p ps=1.36e+06u
M1008 VPWR D a_319_369# VPB phighvt w=640000u l=180000u
+  ad=0p pd=0u as=1.728e+11p ps=1.82e+06u
M1009 VGND RESET_B a_981_47# VNB nshort w=650000u l=150000u
+  ad=0p pd=0u as=1.6575e+11p ps=1.81e+06u
M1010 a_604_47# a_27_363# a_500_47# VNB nshort w=360000u l=150000u
+  ad=0p pd=0u as=1.482e+11p ps=1.58e+06u
M1011 Q a_750_21# VGND VNB nshort w=650000u l=150000u
+  ad=1.69e+11p pd=1.82e+06u as=0p ps=0u
M1012 VPWR RESET_B a_750_21# VPB phighvt w=1e+06u l=180000u
+  ad=0p pd=0u as=2.9e+11p ps=2.58e+06u
M1013 a_981_47# a_604_47# a_750_21# VNB nshort w=650000u l=150000u
+  ad=0p pd=0u as=1.69e+11p ps=1.82e+06u
M1014 VGND GATE_N a_27_363# VNB nshort w=420000u l=150000u
+  ad=0p pd=0u as=1.092e+11p ps=1.36e+06u
M1015 a_702_413# a_27_363# a_604_47# VPB phighvt w=420000u l=180000u
+  ad=0p pd=0u as=1.218e+11p ps=1.42e+06u
M1016 a_203_47# a_27_363# VPWR VPB phighvt w=640000u l=180000u
+  ad=1.728e+11p pd=1.82e+06u as=0p ps=0u
M1017 a_604_47# a_203_47# a_503_369# VPB phighvt w=420000u l=180000u
+  ad=0p pd=0u as=0p ps=0u
M1018 a_500_47# a_319_369# VGND VNB nshort w=420000u l=150000u
+  ad=0p pd=0u as=0p ps=0u
M1019 a_750_21# a_604_47# VPWR VPB phighvt w=1e+06u l=180000u
+  ad=0p pd=0u as=0p ps=0u
.ends
.subckt sky130_fd_sc_hdll__clkmux2_2 VGND VPWR S A1 A0 X VPB VNB
M1000 VPWR a_79_199# X VPB phighvt w=1e+06u l=180000u
+  ad=1.0664e+12p pd=8.08e+06u as=2.9e+11p ps=2.58e+06u
M1001 VGND a_741_21# a_570_47# VNB nshort w=420000u l=150000u
+  ad=6.32e+11p pd=5.72e+06u as=3.591e+11p ps=2.55e+06u
M1002 a_335_309# S VPWR VPB phighvt w=940000u l=180000u
+  ad=3.901e+11p pd=2.71e+06u as=0p ps=0u
M1003 X a_79_199# VGND VNB nshort w=520000u l=150000u
+  ad=1.404e+11p pd=1.58e+06u as=0p ps=0u
M1004 a_741_21# S VGND VNB nshort w=520000u l=150000u
+  ad=1.352e+11p pd=1.56e+06u as=0p ps=0u
M1005 X a_79_199# VPWR VPB phighvt w=1e+06u l=180000u
+  ad=0p pd=0u as=0p ps=0u
M1006 a_691_309# A1 a_79_199# VPB phighvt w=940000u l=180000u
+  ad=2.444e+11p pd=2.4e+06u as=9.447e+11p ps=3.89e+06u
M1007 a_570_47# A0 a_79_199# VNB nshort w=420000u l=150000u
+  ad=0p pd=0u as=2.121e+11p ps=1.85e+06u
M1008 a_337_47# S VGND VNB nshort w=420000u l=150000u
+  ad=1.512e+11p pd=1.56e+06u as=0p ps=0u
M1009 a_741_21# S VPWR VPB phighvt w=940000u l=180000u
+  ad=2.726e+11p pd=2.46e+06u as=0p ps=0u
M1010 VGND a_79_199# X VNB nshort w=520000u l=150000u
+  ad=0p pd=0u as=0p ps=0u
M1011 a_79_199# A0 a_335_309# VPB phighvt w=940000u l=180000u
+  ad=0p pd=0u as=0p ps=0u
M1012 VPWR a_741_21# a_691_309# VPB phighvt w=940000u l=180000u
+  ad=0p pd=0u as=0p ps=0u
M1013 a_79_199# A1 a_337_47# VNB nshort w=420000u l=150000u
+  ad=0p pd=0u as=0p ps=0u
.ends
.subckt sky130_fd_sc_hdll__or2_8 X A B VNB VPB VGND VPWR
M1000 VPWR A a_27_297# VPB phighvt w=1e+06u l=180000u
+  ad=1.71e+12p pd=1.542e+07u as=8.5e+11p ps=7.7e+06u
M1001 VGND A a_123_47# VNB nshort w=650000u l=150000u
+  ad=1.963e+12p pd=1.514e+07u as=3.51e+11p ps=3.68e+06u
M1002 X a_123_47# VPWR VPB phighvt w=1e+06u l=180000u
+  ad=1.16e+12p pd=1.032e+07u as=0p ps=0u
M1003 VGND a_123_47# X VNB nshort w=650000u l=150000u
+  ad=0p pd=0u as=7.02e+11p ps=7.36e+06u
M1004 a_123_47# A VGND VNB nshort w=650000u l=150000u
+  ad=0p pd=0u as=0p ps=0u
M1005 VGND a_123_47# X VNB nshort w=650000u l=150000u
+  ad=0p pd=0u as=0p ps=0u
M1006 a_27_297# B a_123_47# VPB phighvt w=1e+06u l=180000u
+  ad=0p pd=0u as=2.9e+11p ps=2.58e+06u
M1007 VPWR a_123_47# X VPB phighvt w=1e+06u l=180000u
+  ad=0p pd=0u as=0p ps=0u
M1008 a_123_47# B a_27_297# VPB phighvt w=1e+06u l=180000u
+  ad=0p pd=0u as=0p ps=0u
M1009 VPWR a_123_47# X VPB phighvt w=1e+06u l=180000u
+  ad=0p pd=0u as=0p ps=0u
M1010 X a_123_47# VGND VNB nshort w=650000u l=150000u
+  ad=0p pd=0u as=0p ps=0u
M1011 X a_123_47# VPWR VPB phighvt w=1e+06u l=180000u
+  ad=0p pd=0u as=0p ps=0u
M1012 a_123_47# B VGND VNB nshort w=650000u l=150000u
+  ad=0p pd=0u as=0p ps=0u
M1013 X a_123_47# VGND VNB nshort w=650000u l=150000u
+  ad=0p pd=0u as=0p ps=0u
M1014 a_27_297# A VPWR VPB phighvt w=1e+06u l=180000u
+  ad=0p pd=0u as=0p ps=0u
M1015 X a_123_47# VPWR VPB phighvt w=1e+06u l=180000u
+  ad=0p pd=0u as=0p ps=0u
M1016 VGND B a_123_47# VNB nshort w=650000u l=150000u
+  ad=0p pd=0u as=0p ps=0u
M1017 VPWR a_123_47# X VPB phighvt w=1e+06u l=180000u
+  ad=0p pd=0u as=0p ps=0u
M1018 VGND a_123_47# X VNB nshort w=650000u l=150000u
+  ad=0p pd=0u as=0p ps=0u
M1019 VPWR a_123_47# X VPB phighvt w=1e+06u l=180000u
+  ad=0p pd=0u as=0p ps=0u
M1020 X a_123_47# VPWR VPB phighvt w=1e+06u l=180000u
+  ad=0p pd=0u as=0p ps=0u
M1021 VGND a_123_47# X VNB nshort w=650000u l=150000u
+  ad=0p pd=0u as=0p ps=0u
M1022 X a_123_47# VGND VNB nshort w=650000u l=150000u
+  ad=0p pd=0u as=0p ps=0u
M1023 X a_123_47# VGND VNB nshort w=650000u l=150000u
+  ad=0p pd=0u as=0p ps=0u
.ends
.subckt sky130_fd_sc_hdll__o21ai_2 B1 Y A2 A1 VGND VPWR VPB VNB
M1000 a_29_47# A1 VGND VNB nshort w=650000u l=150000u
+  ad=8.7425e+11p pd=7.89e+06u as=5.005e+11p ps=4.14e+06u
M1001 Y B1 VPWR VPB phighvt w=1e+06u l=180000u
+  ad=6e+11p pd=5.2e+06u as=9.95e+11p ps=7.99e+06u
M1002 a_120_297# A1 VPWR VPB phighvt w=1e+06u l=180000u
+  ad=6.7e+11p pd=5.34e+06u as=0p ps=0u
M1003 a_120_297# A2 Y VPB phighvt w=1e+06u l=180000u
+  ad=0p pd=0u as=0p ps=0u
M1004 Y B1 a_29_47# VNB nshort w=650000u l=150000u
+  ad=2.145e+11p pd=1.96e+06u as=0p ps=0u
M1005 VPWR A1 a_120_297# VPB phighvt w=1e+06u l=180000u
+  ad=0p pd=0u as=0p ps=0u
M1006 a_29_47# B1 Y VNB nshort w=650000u l=150000u
+  ad=0p pd=0u as=0p ps=0u
M1007 Y A2 a_120_297# VPB phighvt w=1e+06u l=180000u
+  ad=0p pd=0u as=0p ps=0u
M1008 VGND A1 a_29_47# VNB nshort w=650000u l=150000u
+  ad=0p pd=0u as=0p ps=0u
M1009 a_29_47# A2 VGND VNB nshort w=650000u l=150000u
+  ad=0p pd=0u as=0p ps=0u
M1010 VGND A2 a_29_47# VNB nshort w=650000u l=150000u
+  ad=0p pd=0u as=0p ps=0u
M1011 VPWR B1 Y VPB phighvt w=1e+06u l=180000u
+  ad=0p pd=0u as=0p ps=0u
.ends
.subckt sky130_fd_sc_hdll__and3_4 A B C X VNB VPB VGND VPWR
M1000 X a_85_297# VPWR VPB phighvt w=1e+06u l=180000u
+  ad=6e+11p pd=5.2e+06u as=1.435e+12p ps=1.087e+07u
M1001 a_85_297# B VPWR VPB phighvt w=1e+06u l=180000u
+  ad=6.1e+11p pd=5.22e+06u as=0p ps=0u
M1002 a_185_47# A a_85_297# VNB nshort w=650000u l=150000u
+  ad=3.2175e+11p pd=2.29e+06u as=1.9825e+11p ps=1.91e+06u
M1003 X a_85_297# VGND VNB nshort w=650000u l=150000u
+  ad=4.615e+11p pd=4.02e+06u as=7.085e+11p ps=6.08e+06u
M1004 VPWR a_85_297# X VPB phighvt w=1e+06u l=180000u
+  ad=0p pd=0u as=0p ps=0u
M1005 VPWR a_85_297# X VPB phighvt w=1e+06u l=180000u
+  ad=0p pd=0u as=0p ps=0u
M1006 a_314_47# B a_185_47# VNB nshort w=650000u l=150000u
+  ad=1.365e+11p pd=1.72e+06u as=0p ps=0u
M1007 VGND C a_314_47# VNB nshort w=650000u l=150000u
+  ad=0p pd=0u as=0p ps=0u
M1008 VGND a_85_297# X VNB nshort w=650000u l=150000u
+  ad=0p pd=0u as=0p ps=0u
M1009 VPWR C a_85_297# VPB phighvt w=1e+06u l=180000u
+  ad=0p pd=0u as=0p ps=0u
M1010 X a_85_297# VPWR VPB phighvt w=1e+06u l=180000u
+  ad=0p pd=0u as=0p ps=0u
M1011 X a_85_297# VGND VNB nshort w=650000u l=150000u
+  ad=0p pd=0u as=0p ps=0u
M1012 VGND a_85_297# X VNB nshort w=650000u l=150000u
+  ad=0p pd=0u as=0p ps=0u
M1013 VPWR A a_85_297# VPB phighvt w=1e+06u l=180000u
+  ad=0p pd=0u as=0p ps=0u
.ends
.subckt sky130_fd_sc_hdll__clkbuf_4 X A VGND VPWR VPB VNB
M1000 VGND A a_27_47# VNB nshort w=420000u l=150000u
+  ad=4.011e+11p pd=4.43e+06u as=1.323e+11p ps=1.47e+06u
M1001 X a_27_47# VGND VNB nshort w=420000u l=150000u
+  ad=2.982e+11p pd=3.1e+06u as=0p ps=0u
M1002 X a_27_47# VGND VNB nshort w=420000u l=150000u
+  ad=0p pd=0u as=0p ps=0u
M1003 VPWR A a_27_47# VPB phighvt w=1e+06u l=180000u
+  ad=9.6e+11p pd=7.92e+06u as=2.75e+11p ps=2.55e+06u
M1004 VPWR a_27_47# X VPB phighvt w=1e+06u l=180000u
+  ad=0p pd=0u as=6e+11p ps=5.2e+06u
M1005 VGND a_27_47# X VNB nshort w=420000u l=150000u
+  ad=0p pd=0u as=0p ps=0u
M1006 VPWR a_27_47# X VPB phighvt w=1e+06u l=180000u
+  ad=0p pd=0u as=0p ps=0u
M1007 X a_27_47# VPWR VPB phighvt w=1e+06u l=180000u
+  ad=0p pd=0u as=0p ps=0u
M1008 X a_27_47# VPWR VPB phighvt w=1e+06u l=180000u
+  ad=0p pd=0u as=0p ps=0u
M1009 VGND a_27_47# X VNB nshort w=420000u l=150000u
+  ad=0p pd=0u as=0p ps=0u
.ends
.subckt sky130_fd_sc_hdll__clkinv_4 A Y VNB VPB VPWR VGND
M1000 VPWR A Y VPB phighvt w=1e+06u l=180000u
+  ad=1.27e+12p pd=1.054e+07u as=9e+11p ps=7.8e+06u
M1001 Y A VGND VNB nshort w=420000u l=150000u
+  ad=2.772e+11p pd=3e+06u as=4.851e+11p ps=4.83e+06u
M1002 VGND A Y VNB nshort w=420000u l=150000u
+  ad=0p pd=0u as=0p ps=0u
M1003 VPWR A Y VPB phighvt w=1e+06u l=180000u
+  ad=0p pd=0u as=0p ps=0u
M1004 Y A VPWR VPB phighvt w=1e+06u l=180000u
+  ad=0p pd=0u as=0p ps=0u
M1005 Y A VPWR VPB phighvt w=1e+06u l=180000u
+  ad=0p pd=0u as=0p ps=0u
M1006 Y A VGND VNB nshort w=420000u l=150000u
+  ad=0p pd=0u as=0p ps=0u
M1007 Y A VPWR VPB phighvt w=1e+06u l=180000u
+  ad=0p pd=0u as=0p ps=0u
M1008 VGND A Y VNB nshort w=420000u l=150000u
+  ad=0p pd=0u as=0p ps=0u
M1009 VPWR A Y VPB phighvt w=1e+06u l=180000u
+  ad=0p pd=0u as=0p ps=0u
.ends
.subckt sky130_fd_sc_hdll__sdfstp_4 CLK D SCD Q SCE SET_B VPWR VGND VPB VNB
M1000 VPWR SET_B a_1229_21# VPB phighvt w=420000u l=180000u
+  ad=2.3974e+12p pd=2.127e+07u as=1.722e+11p ps=1.66e+06u
M1001 VGND a_349_21# a_295_47# VNB nshort w=420000u l=150000u
+  ad=1.73245e+12p pd=1.7e+07u as=1.134e+11p ps=1.38e+06u
M1002 a_2067_47# a_1951_295# a_1995_47# VNB nshort w=420000u l=150000u
+  ad=2.016e+11p pd=1.8e+06u as=8.82e+10p ps=1.26e+06u
M1003 a_1745_329# SET_B VPWR VPB phighvt w=420000u l=180000u
+  ad=4.746e+11p pd=4.26e+06u as=0p ps=0u
M1004 a_1951_295# a_1745_329# VPWR VPB phighvt w=420000u l=180000u
+  ad=1.134e+11p pd=1.38e+06u as=0p ps=0u
M1005 a_1995_47# a_693_369# a_1745_329# VNB nshort w=420000u l=150000u
+  ad=0p pd=0u as=3.332e+11p ps=2.5e+06u
M1006 a_1891_413# a_877_369# a_1745_329# VPB phighvt w=420000u l=180000u
+  ad=1.302e+11p pd=1.46e+06u as=0p ps=0u
M1007 VGND SCE a_349_21# VNB nshort w=420000u l=150000u
+  ad=0p pd=0u as=1.302e+11p ps=1.46e+06u
M1008 a_1075_413# a_877_369# a_201_47# VPB phighvt w=420000u l=180000u
+  ad=1.218e+11p pd=1.42e+06u as=2.99e+11p ps=3.24e+06u
M1009 VGND a_2447_47# Q VNB nshort w=650000u l=150000u
+  ad=0p pd=0u as=4.16e+11p ps=3.88e+06u
M1010 VPWR SCD a_27_369# VPB phighvt w=640000u l=180000u
+  ad=0p pd=0u as=3.456e+11p ps=3.64e+06u
M1011 a_1229_21# a_1075_413# VPWR VPB phighvt w=420000u l=180000u
+  ad=0p pd=0u as=0p ps=0u
M1012 Q a_2447_47# VPWR VPB phighvt w=1e+06u l=180000u
+  ad=5.8e+11p pd=5.16e+06u as=0p ps=0u
M1013 Q a_2447_47# VGND VNB nshort w=650000u l=150000u
+  ad=0p pd=0u as=0p ps=0u
M1014 VPWR SCE a_349_21# VPB phighvt w=640000u l=180000u
+  ad=0p pd=0u as=1.728e+11p ps=1.82e+06u
M1015 VGND SET_B a_2067_47# VNB nshort w=420000u l=150000u
+  ad=0p pd=0u as=0p ps=0u
M1016 VPWR a_2447_47# Q VPB phighvt w=1e+06u l=180000u
+  ad=0p pd=0u as=0p ps=0u
M1017 VGND SET_B a_1467_47# VNB nshort w=420000u l=150000u
+  ad=0p pd=0u as=1.092e+11p ps=1.36e+06u
M1018 a_877_369# a_693_369# VGND VNB nshort w=420000u l=150000u
+  ad=1.092e+11p pd=1.36e+06u as=0p ps=0u
M1019 VGND a_1229_21# a_1177_47# VNB nshort w=420000u l=150000u
+  ad=0p pd=0u as=1.092e+11p ps=1.36e+06u
M1020 VPWR a_1951_295# a_1891_413# VPB phighvt w=420000u l=180000u
+  ad=0p pd=0u as=0p ps=0u
M1021 VGND CLK a_693_369# VNB nshort w=420000u l=150000u
+  ad=0p pd=0u as=1.302e+11p ps=1.46e+06u
M1022 a_1951_295# a_1745_329# VGND VNB nshort w=420000u l=150000u
+  ad=1.596e+11p pd=1.6e+06u as=0p ps=0u
M1023 a_1654_47# a_1075_413# VGND VNB nshort w=640000u l=150000u
+  ad=5.088e+11p pd=2.87e+06u as=0p ps=0u
M1024 a_1467_47# a_1075_413# a_1229_21# VNB nshort w=420000u l=150000u
+  ad=0p pd=0u as=1.512e+11p ps=1.56e+06u
M1025 Q a_2447_47# VPWR VPB phighvt w=1e+06u l=180000u
+  ad=0p pd=0u as=0p ps=0u
M1026 a_27_369# a_349_21# a_201_47# VPB phighvt w=640000u l=180000u
+  ad=0p pd=0u as=0p ps=0u
M1027 a_119_47# SCD VGND VNB nshort w=420000u l=150000u
+  ad=1.092e+11p pd=1.36e+06u as=0p ps=0u
M1028 a_1177_47# a_877_369# a_1075_413# VNB nshort w=420000u l=150000u
+  ad=0p pd=0u as=1.344e+11p ps=1.48e+06u
M1029 VPWR a_2447_47# Q VPB phighvt w=1e+06u l=180000u
+  ad=0p pd=0u as=0p ps=0u
M1030 VGND a_1745_329# a_2447_47# VNB nshort w=650000u l=150000u
+  ad=0p pd=0u as=2.015e+11p ps=1.92e+06u
M1031 a_877_369# a_693_369# VPWR VPB phighvt w=640000u l=180000u
+  ad=1.728e+11p pd=1.82e+06u as=0p ps=0u
M1032 a_1663_329# a_1075_413# VPWR VPB phighvt w=840000u l=180000u
+  ad=1.932e+11p pd=2.14e+06u as=0p ps=0u
M1033 a_1075_413# a_693_369# a_201_47# VNB nshort w=420000u l=150000u
+  ad=0p pd=0u as=2.646e+11p ps=2.94e+06u
M1034 a_1745_329# a_693_369# a_1663_329# VPB phighvt w=840000u l=180000u
+  ad=0p pd=0u as=0p ps=0u
M1035 a_295_47# D a_201_47# VNB nshort w=420000u l=150000u
+  ad=0p pd=0u as=0p ps=0u
M1036 VGND a_2447_47# Q VNB nshort w=650000u l=150000u
+  ad=0p pd=0u as=0p ps=0u
M1037 a_201_47# SCE a_119_47# VNB nshort w=420000u l=150000u
+  ad=0p pd=0u as=0p ps=0u
M1038 Q a_2447_47# VGND VNB nshort w=650000u l=150000u
+  ad=0p pd=0u as=0p ps=0u
M1039 a_211_369# SCE VPWR VPB phighvt w=640000u l=180000u
+  ad=1.472e+11p pd=1.74e+06u as=0p ps=0u
M1040 VPWR a_1745_329# a_2447_47# VPB phighvt w=1e+06u l=180000u
+  ad=0p pd=0u as=2.7e+11p ps=2.54e+06u
M1041 a_201_47# D a_211_369# VPB phighvt w=640000u l=180000u
+  ad=0p pd=0u as=0p ps=0u
M1042 a_1169_413# a_693_369# a_1075_413# VPB phighvt w=420000u l=180000u
+  ad=1.596e+11p pd=1.6e+06u as=0p ps=0u
M1043 VPWR a_1229_21# a_1169_413# VPB phighvt w=420000u l=180000u
+  ad=0p pd=0u as=0p ps=0u
M1044 VPWR CLK a_693_369# VPB phighvt w=640000u l=180000u
+  ad=0p pd=0u as=1.728e+11p ps=1.82e+06u
M1045 a_1745_329# a_877_369# a_1654_47# VNB nshort w=640000u l=150000u
+  ad=0p pd=0u as=0p ps=0u
.ends
.subckt sky130_fd_sc_hdll__a2bb2oi_1 A1_N Y VGND VPWR B2 B1 A2_N VPB VNB
M1000 a_521_47# B2 Y VNB nshort w=650000u l=150000u
+  ad=1.82e+11p pd=1.86e+06u as=2.6e+11p ps=2.1e+06u
M1001 a_119_47# A2_N a_117_297# VPB phighvt w=1e+06u l=180000u
+  ad=2.7e+11p pd=2.54e+06u as=2.3e+11p ps=2.46e+06u
M1002 a_117_297# A1_N VPWR VPB phighvt w=1e+06u l=180000u
+  ad=0p pd=0u as=5.7e+11p ps=5.14e+06u
M1003 VGND A2_N a_119_47# VNB nshort w=650000u l=150000u
+  ad=9.425e+11p pd=6.8e+06u as=2.145e+11p ps=1.96e+06u
M1004 Y a_119_47# VGND VNB nshort w=650000u l=150000u
+  ad=0p pd=0u as=0p ps=0u
M1005 a_409_297# B1 VPWR VPB phighvt w=1e+06u l=180000u
+  ad=6.4e+11p pd=5.28e+06u as=0p ps=0u
M1006 a_409_297# a_119_47# Y VPB phighvt w=1e+06u l=180000u
+  ad=0p pd=0u as=2.7e+11p ps=2.54e+06u
M1007 a_119_47# A1_N VGND VNB nshort w=650000u l=150000u
+  ad=0p pd=0u as=0p ps=0u
M1008 VGND B1 a_521_47# VNB nshort w=650000u l=150000u
+  ad=0p pd=0u as=0p ps=0u
M1009 VPWR B2 a_409_297# VPB phighvt w=1e+06u l=180000u
+  ad=0p pd=0u as=0p ps=0u
.ends
.subckt sky130_fd_sc_hdll__nor4bb_2 D_N C_N A Y B VNB VPB VGND VPWR
M1000 Y a_216_93# VGND VNB nshort w=650000u l=150000u