* Copyright 2020 The SkyWater PDK Authors
*
* Licensed under the Apache License, Version 2.0 (the "License");
* you may not use this file except in compliance with the License.
* You may obtain a copy of the License at
*
*     https://www.apache.org/licenses/LICENSE-2.0
*
* Unless required by applicable law or agreed to in writing, software
* distributed under the License is distributed on an "AS IS" BASIS,
* WITHOUT WARRANTIES OR CONDITIONS OF ANY KIND, either express or implied.
* See the License for the specific language governing permissions and
* limitations under the License.
*
* SPDX-License-Identifier: Apache-2.0






































































































































































































































































































































.subckt sky130_fd_sc_hdll__tap VGND VPWR
Xsky130_fd_sc_hdll__o22ai_2_0 sky130_fd_sc_hdll__o22ai_2_0/B2 sky130_fd_sc_hdll__o22ai_2_0/B1
+ sky130_fd_sc_hdll__o22ai_2_0/Y sky130_fd_sc_hdll__o22ai_2_0/A1 sky130_fd_sc_hdll__o22ai_2_0/A2
+ VPWR VGND VGND VPWR sky130_fd_sc_hdll__o22ai_2
Xsky130_fd_sc_hdll__nand2_1_0 sky130_fd_sc_hdll__nand2_1_0/Y sky130_fd_sc_hdll__nand2_1_0/B
+ sky130_fd_sc_hdll__nand2_1_0/A VPWR VGND VGND VPWR sky130_fd_sc_hdll__nand2_1
Xsky130_fd_sc_hdll__nor3_4_0 sky130_fd_sc_hdll__nor3_4_0/A sky130_fd_sc_hdll__nor3_4_0/C
+ sky130_fd_sc_hdll__nor3_4_0/B sky130_fd_sc_hdll__nor3_4_0/Y VPWR VGND VGND VPWR
+ sky130_fd_sc_hdll__nor3_4
Xsky130_fd_sc_hdll__tapvpwrvgnd_1_8 VPWR VGND sky130_fd_sc_hdll__tapvpwrvgnd_1
Xsky130_fd_sc_hdll__a21bo_1_0 sky130_fd_sc_hdll__a21bo_1_0/X sky130_fd_sc_hdll__a21bo_1_0/A1
+ sky130_fd_sc_hdll__a21bo_1_0/B1_N sky130_fd_sc_hdll__a21bo_1_0/A2 VGND VPWR VGND
+ VPWR sky130_fd_sc_hdll__a21bo_1
Xsky130_fd_sc_hdll__nand2b_2_0 sky130_fd_sc_hdll__nand2b_2_0/B sky130_fd_sc_hdll__nand2b_2_0/Y
+ sky130_fd_sc_hdll__nand2b_2_0/A_N VGND VPWR VGND VPWR sky130_fd_sc_hdll__nand2b_2
Xsky130_fd_sc_hdll__tapvpwrvgnd_1_305 VPWR VGND sky130_fd_sc_hdll__tapvpwrvgnd_1
Xsky130_fd_sc_hdll__tapvpwrvgnd_1_316 VPWR VGND sky130_fd_sc_hdll__tapvpwrvgnd_1
Xsky130_fd_sc_hdll__tapvpwrvgnd_1_19 VPWR VGND sky130_fd_sc_hdll__tapvpwrvgnd_1
Xsky130_fd_sc_hdll__a31oi_1_0 VGND VPWR sky130_fd_sc_hdll__a31oi_1_0/Y sky130_fd_sc_hdll__a31oi_1_0/B1
+ sky130_fd_sc_hdll__a31oi_1_0/A2 sky130_fd_sc_hdll__a31oi_1_0/A1 sky130_fd_sc_hdll__a31oi_1_0/A3
+ VPWR VGND sky130_fd_sc_hdll__a31oi_1
Xsky130_fd_sc_hdll__mux2i_1_0 sky130_fd_sc_hdll__mux2i_1_0/A1 sky130_fd_sc_hdll__mux2i_1_0/S
+ sky130_fd_sc_hdll__mux2i_1_0/A0 sky130_fd_sc_hdll__mux2i_1_0/Y VPWR VGND VGND VPWR
+ sky130_fd_sc_hdll__mux2i_1
Xsky130_fd_sc_hdll__clkbuf_16_0 sky130_fd_sc_hdll__clkbuf_16_0/X sky130_fd_sc_hdll__clkbuf_16_0/A
+ VGND VPWR VGND VPWR sky130_fd_sc_hdll__clkbuf_16
Xsky130_fd_sc_hdll__o211ai_2_0 sky130_fd_sc_hdll__o211ai_2_0/A1 sky130_fd_sc_hdll__o211ai_2_0/A2
+ sky130_fd_sc_hdll__o211ai_2_0/B1 sky130_fd_sc_hdll__o211ai_2_0/Y sky130_fd_sc_hdll__o211ai_2_0/C1
+ VGND VPWR VGND VPWR sky130_fd_sc_hdll__o211ai_2
Xsky130_fd_sc_hdll__tapvpwrvgnd_1_102 VPWR VGND sky130_fd_sc_hdll__tapvpwrvgnd_1
Xsky130_fd_sc_hdll__tapvpwrvgnd_1_113 VPWR VGND sky130_fd_sc_hdll__tapvpwrvgnd_1
Xsky130_fd_sc_hdll__tapvpwrvgnd_1_124 VPWR VGND sky130_fd_sc_hdll__tapvpwrvgnd_1
Xsky130_fd_sc_hdll__tapvpwrvgnd_1_135 VPWR VGND sky130_fd_sc_hdll__tapvpwrvgnd_1
Xsky130_fd_sc_hdll__tapvpwrvgnd_1_146 VPWR VGND sky130_fd_sc_hdll__tapvpwrvgnd_1
Xsky130_fd_sc_hdll__tapvpwrvgnd_1_157 VPWR VGND sky130_fd_sc_hdll__tapvpwrvgnd_1
Xsky130_fd_sc_hdll__tapvpwrvgnd_1_179 VPWR VGND sky130_fd_sc_hdll__tapvpwrvgnd_1
Xsky130_fd_sc_hdll__tapvpwrvgnd_1_168 VPWR VGND sky130_fd_sc_hdll__tapvpwrvgnd_1
Xsky130_fd_sc_hdll__or2b_1_0 sky130_fd_sc_hdll__or2b_1_0/A sky130_fd_sc_hdll__or2b_1_0/B_N
+ sky130_fd_sc_hdll__or2b_1_0/X VGND VPWR VGND VPWR sky130_fd_sc_hdll__or2b_1
Xsky130_fd_sc_hdll__dlrtn_1_0 sky130_fd_sc_hdll__dlrtn_1_0/RESET_B sky130_fd_sc_hdll__dlrtn_1_0/D
+ sky130_fd_sc_hdll__dlrtn_1_0/GATE_N sky130_fd_sc_hdll__dlrtn_1_0/Q VGND VPWR VPWR
+ VGND sky130_fd_sc_hdll__dlrtn_1
Xsky130_fd_sc_hdll__clkmux2_2_0 VGND VPWR sky130_fd_sc_hdll__clkmux2_2_0/S sky130_fd_sc_hdll__clkmux2_2_0/A1
+ sky130_fd_sc_hdll__clkmux2_2_0/A0 sky130_fd_sc_hdll__clkmux2_2_0/X VPWR VGND sky130_fd_sc_hdll__clkmux2_2
Xsky130_fd_sc_hdll__or2_8_0 sky130_fd_sc_hdll__or2_8_0/X sky130_fd_sc_hdll__or2_8_0/A
+ sky130_fd_sc_hdll__or2_8_0/B VGND VPWR VGND VPWR sky130_fd_sc_hdll__or2_8
Xsky130_fd_sc_hdll__tapvpwrvgnd_1_9 VPWR VGND sky130_fd_sc_hdll__tapvpwrvgnd_1
Xsky130_fd_sc_hdll__o21ai_2_0 sky130_fd_sc_hdll__o21ai_2_0/B1 sky130_fd_sc_hdll__o21ai_2_0/Y
+ sky130_fd_sc_hdll__o21ai_2_0/A2 sky130_fd_sc_hdll__o21ai_2_0/A1 VGND VPWR VPWR VGND
+ sky130_fd_sc_hdll__o21ai_2
Xsky130_fd_sc_hdll__and3_4_0 sky130_fd_sc_hdll__and3_4_0/A sky130_fd_sc_hdll__and3_4_0/B
+ sky130_fd_sc_hdll__and3_4_0/C sky130_fd_sc_hdll__and3_4_0/X VGND VPWR VGND VPWR
+ sky130_fd_sc_hdll__and3_4
Xsky130_fd_sc_hdll__clkbuf_4_0 sky130_fd_sc_hdll__clkbuf_4_0/X sky130_fd_sc_hdll__clkbuf_4_0/A
+ VGND VPWR VPWR VGND sky130_fd_sc_hdll__clkbuf_4
Xsky130_fd_sc_hdll__clkinv_4_0 sky130_fd_sc_hdll__clkinv_4_0/A sky130_fd_sc_hdll__clkinv_4_0/Y
+ VGND VPWR VPWR VGND sky130_fd_sc_hdll__clkinv_4
Xsky130_fd_sc_hdll__sdfstp_4_0 sky130_fd_sc_hdll__sdfstp_4_0/CLK sky130_fd_sc_hdll__sdfstp_4_0/D
+ sky130_fd_sc_hdll__sdfstp_4_0/SCD sky130_fd_sc_hdll__sdfstp_4_0/Q sky130_fd_sc_hdll__sdfstp_4_0/SCE
+ sky130_fd_sc_hdll__sdfstp_4_0/SET_B VPWR VGND VPWR VGND sky130_fd_sc_hdll__sdfstp_4
Xsky130_fd_sc_hdll__a2bb2oi_1_0 sky130_fd_sc_hdll__a2bb2oi_1_0/A1_N sky130_fd_sc_hdll__a2bb2oi_1_0/Y
+ VGND VPWR sky130_fd_sc_hdll__a2bb2oi_1_0/B2 sky130_fd_sc_hdll__a2bb2oi_1_0/B1 sky130_fd_sc_hdll__a2bb2oi_1_0/A2_N
+ VPWR VGND sky130_fd_sc_hdll__a2bb2oi_1
Xsky130_fd_sc_hdll__nor4bb_2_0 sky130_fd_sc_hdll__nor4bb_2_0/D_N sky130_fd_sc_hdll__nor4bb_2_0/C_N
+ sky130_fd_sc_hdll__nor4bb_2_0/A sky130_fd_sc_hdll__nor4bb_2_0/Y sky130_fd_sc_hdll__nor4bb_2_0/B
+ VGND VPWR VGND VPWR sky130_fd_sc_hdll__nor4bb_2
Xsky130_fd_sc_hdll__tapvpwrvgnd_1_306 VPWR VGND sky130_fd_sc_hdll__tapvpwrvgnd_1
Xsky130_fd_sc_hdll__tapvpwrvgnd_1_317 VPWR VGND sky130_fd_sc_hdll__tapvpwrvgnd_1
Xsky130_fd_sc_hdll__isobufsrc_2_0 sky130_fd_sc_hdll__isobufsrc_2_0/A sky130_fd_sc_hdll__isobufsrc_2_0/SLEEP
+ sky130_fd_sc_hdll__isobufsrc_2_0/X VPWR VGND VGND VPWR sky130_fd_sc_hdll__isobufsrc_2
Xsky130_fd_sc_hdll__sdfxbp_1_0 VGND VPWR sky130_fd_sc_hdll__sdfxbp_1_0/SCD sky130_fd_sc_hdll__sdfxbp_1_0/Q_N
+ sky130_fd_sc_hdll__sdfxbp_1_0/D sky130_fd_sc_hdll__sdfxbp_1_0/SCE sky130_fd_sc_hdll__sdfxbp_1_0/CLK
+ sky130_fd_sc_hdll__sdfxbp_1_0/Q VGND VPWR sky130_fd_sc_hdll__sdfxbp_1
Xsky130_fd_sc_hdll__tapvpwrvgnd_1_103 VPWR VGND sky130_fd_sc_hdll__tapvpwrvgnd_1
Xsky130_fd_sc_hdll__tapvpwrvgnd_1_114 VPWR VGND sky130_fd_sc_hdll__tapvpwrvgnd_1
Xsky130_fd_sc_hdll__tapvpwrvgnd_1_125 VPWR VGND sky130_fd_sc_hdll__tapvpwrvgnd_1
Xsky130_fd_sc_hdll__tapvpwrvgnd_1_136 VPWR VGND sky130_fd_sc_hdll__tapvpwrvgnd_1
Xsky130_fd_sc_hdll__tapvpwrvgnd_1_147 VPWR VGND sky130_fd_sc_hdll__tapvpwrvgnd_1
Xsky130_fd_sc_hdll__tapvpwrvgnd_1_158 VPWR VGND sky130_fd_sc_hdll__tapvpwrvgnd_1
Xsky130_fd_sc_hdll__tapvpwrvgnd_1_169 VPWR VGND sky130_fd_sc_hdll__tapvpwrvgnd_1
Xsky130_fd_sc_hdll__nor2b_1_0 sky130_fd_sc_hdll__nor2b_1_0/B_N sky130_fd_sc_hdll__nor2b_1_0/Y
+ sky130_fd_sc_hdll__nor2b_1_0/A VPWR VGND VGND VPWR sky130_fd_sc_hdll__nor2b_1
Xsky130_fd_sc_hdll__a21boi_4_0 sky130_fd_sc_hdll__a21boi_4_0/Y sky130_fd_sc_hdll__a21boi_4_0/A1
+ sky130_fd_sc_hdll__a21boi_4_0/B1_N sky130_fd_sc_hdll__a21boi_4_0/A2 VGND VPWR VGND
+ VPWR sky130_fd_sc_hdll__a21boi_4
Xsky130_fd_sc_hdll__nand3_4_0 sky130_fd_sc_hdll__nand3_4_0/Y sky130_fd_sc_hdll__nand3_4_0/A
+ sky130_fd_sc_hdll__nand3_4_0/B sky130_fd_sc_hdll__nand3_4_0/C VGND VPWR VGND VPWR
+ sky130_fd_sc_hdll__nand3_4
Xsky130_fd_sc_hdll__mux2_4_0 sky130_fd_sc_hdll__mux2_4_0/X sky130_fd_sc_hdll__mux2_4_0/S
+ sky130_fd_sc_hdll__mux2_4_0/A0 sky130_fd_sc_hdll__mux2_4_0/A1 VGND VPWR VPWR VGND
+ sky130_fd_sc_hdll__mux2_4
Xsky130_fd_sc_hdll__and2b_4_0 sky130_fd_sc_hdll__and2b_4_0/B sky130_fd_sc_hdll__and2b_4_0/X
+ sky130_fd_sc_hdll__and2b_4_0/A_N VGND VPWR VGND VPWR sky130_fd_sc_hdll__and2b_4
Xsky130_fd_sc_hdll__o22a_2_0 sky130_fd_sc_hdll__o22a_2_0/A2 sky130_fd_sc_hdll__o22a_2_0/X
+ sky130_fd_sc_hdll__o22a_2_0/B1 sky130_fd_sc_hdll__o22a_2_0/A1 sky130_fd_sc_hdll__o22a_2_0/B2
+ VGND VPWR VGND VPWR sky130_fd_sc_hdll__o22a_2
Xsky130_fd_sc_hdll__a221oi_2_0 sky130_fd_sc_hdll__a221oi_2_0/B2 sky130_fd_sc_hdll__a221oi_2_0/C1
+ sky130_fd_sc_hdll__a221oi_2_0/A2 sky130_fd_sc_hdll__a221oi_2_0/A1 sky130_fd_sc_hdll__a221oi_2_0/B1
+ sky130_fd_sc_hdll__a221oi_2_0/Y VGND VPWR VGND VPWR sky130_fd_sc_hdll__a221oi_2
Xsky130_fd_sc_hdll__tapvpwrvgnd_1_307 VPWR VGND sky130_fd_sc_hdll__tapvpwrvgnd_1
Xsky130_fd_sc_hdll__tapvpwrvgnd_1_318 VPWR VGND sky130_fd_sc_hdll__tapvpwrvgnd_1
Xsky130_fd_sc_hdll__sdfrtp_4_0 VPWR VGND sky130_fd_sc_hdll__sdfrtp_4_0/RESET_B VPWR
+ VGND sky130_fd_sc_hdll__sdfrtp_4_0/SCE sky130_fd_sc_hdll__sdfrtp_4_0/SCD sky130_fd_sc_hdll__sdfrtp_4_0/D
+ sky130_fd_sc_hdll__sdfrtp_4_0/CLK sky130_fd_sc_hdll__sdfrtp_4_0/Q sky130_fd_sc_hdll__sdfrtp_4
Xsky130_fd_sc_hdll__tapvpwrvgnd_1_104 VPWR VGND sky130_fd_sc_hdll__tapvpwrvgnd_1
Xsky130_fd_sc_hdll__tapvpwrvgnd_1_115 VPWR VGND sky130_fd_sc_hdll__tapvpwrvgnd_1
Xsky130_fd_sc_hdll__tapvpwrvgnd_1_126 VPWR VGND sky130_fd_sc_hdll__tapvpwrvgnd_1
Xsky130_fd_sc_hdll__tapvpwrvgnd_1_137 VPWR VGND sky130_fd_sc_hdll__tapvpwrvgnd_1
Xsky130_fd_sc_hdll__tapvpwrvgnd_1_148 VPWR VGND sky130_fd_sc_hdll__tapvpwrvgnd_1
Xsky130_fd_sc_hdll__tapvpwrvgnd_1_159 VPWR VGND sky130_fd_sc_hdll__tapvpwrvgnd_1
Xsky130_fd_sc_hdll__and4b_1_0 VGND VPWR sky130_fd_sc_hdll__and4b_1_0/C sky130_fd_sc_hdll__and4b_1_0/A_N
+ sky130_fd_sc_hdll__and4b_1_0/X sky130_fd_sc_hdll__and4b_1_0/D sky130_fd_sc_hdll__and4b_1_0/B
+ VPWR VGND sky130_fd_sc_hdll__and4b_1
Xsky130_fd_sc_hdll__probe_p_8_0 sky130_fd_sc_hdll__probe_p_8_0/X sky130_fd_sc_hdll__probe_p_8_0/A
+ VGND VPWR VPWR VGND sky130_fd_sc_hdll__probe_p_8
Xsky130_fd_sc_hdll__o32ai_4_0 sky130_fd_sc_hdll__o32ai_4_0/A1 sky130_fd_sc_hdll__o32ai_4_0/A2
+ sky130_fd_sc_hdll__o32ai_4_0/A3 sky130_fd_sc_hdll__o32ai_4_0/B1 sky130_fd_sc_hdll__o32ai_4_0/Y
+ sky130_fd_sc_hdll__o32ai_4_0/B2 VGND VPWR VGND VPWR sky130_fd_sc_hdll__o32ai_4
Xsky130_fd_sc_hdll__nor3_2_0 sky130_fd_sc_hdll__nor3_2_0/C sky130_fd_sc_hdll__nor3_2_0/Y
+ sky130_fd_sc_hdll__nor3_2_0/A sky130_fd_sc_hdll__nor3_2_0/B VPWR VGND VGND VPWR
+ sky130_fd_sc_hdll__nor3_2
Xsky130_fd_sc_hdll__xor2_4_0 sky130_fd_sc_hdll__xor2_4_0/X sky130_fd_sc_hdll__xor2_4_0/B
+ sky130_fd_sc_hdll__xor2_4_0/A VGND VPWR VGND VPWR sky130_fd_sc_hdll__xor2_4
Xsky130_fd_sc_hdll__or3b_4_0 sky130_fd_sc_hdll__or3b_4_0/A sky130_fd_sc_hdll__or3b_4_0/B
+ sky130_fd_sc_hdll__or3b_4_0/C_N sky130_fd_sc_hdll__or3b_4_0/X VGND VPWR VGND VPWR
+ sky130_fd_sc_hdll__or3b_4
Xsky130_fd_sc_hdll__o21ba_4_0 sky130_fd_sc_hdll__o21ba_4_0/B1_N sky130_fd_sc_hdll__o21ba_4_0/A1
+ sky130_fd_sc_hdll__o21ba_4_0/A2 sky130_fd_sc_hdll__o21ba_4_0/X VGND VPWR VGND VPWR
+ sky130_fd_sc_hdll__o21ba_4
Xsky130_fd_sc_hdll__a31o_1_0 sky130_fd_sc_hdll__a31o_1_0/A2 sky130_fd_sc_hdll__a31o_1_0/B1
+ sky130_fd_sc_hdll__a31o_1_0/A1 sky130_fd_sc_hdll__a31o_1_0/A3 sky130_fd_sc_hdll__a31o_1_0/X
+ VPWR VGND VGND VPWR sky130_fd_sc_hdll__a31o_1
Xsky130_fd_sc_hdll__xnor3_1_0 sky130_fd_sc_hdll__xnor3_1_0/X sky130_fd_sc_hdll__xnor3_1_0/B
+ sky130_fd_sc_hdll__xnor3_1_0/C sky130_fd_sc_hdll__xnor3_1_0/A VGND VPWR VGND VPWR
+ sky130_fd_sc_hdll__xnor3_1
Xsky130_fd_sc_hdll__or4bb_4_0 sky130_fd_sc_hdll__or4bb_4_0/D_N sky130_fd_sc_hdll__or4bb_4_0/B
+ sky130_fd_sc_hdll__or4bb_4_0/A sky130_fd_sc_hdll__or4bb_4_0/C_N sky130_fd_sc_hdll__or4bb_4_0/X
+ VGND VPWR VGND VPWR sky130_fd_sc_hdll__or4bb_4
Xsky130_fd_sc_hdll__probec_p_8_0 sky130_fd_sc_hdll__probec_p_8_0/X sky130_fd_sc_hdll__probec_p_8_0/A
+ VGND VPWR VPWR VGND sky130_fd_sc_hdll__probec_p_8
Xsky130_fd_sc_hdll__tapvpwrvgnd_1_308 VPWR VGND sky130_fd_sc_hdll__tapvpwrvgnd_1
Xsky130_fd_sc_hdll__tapvpwrvgnd_1_319 VPWR VGND sky130_fd_sc_hdll__tapvpwrvgnd_1
Xsky130_fd_sc_hdll__tapvpwrvgnd_1_105 VPWR VGND sky130_fd_sc_hdll__tapvpwrvgnd_1
Xsky130_fd_sc_hdll__tapvpwrvgnd_1_116 VPWR VGND sky130_fd_sc_hdll__tapvpwrvgnd_1
Xsky130_fd_sc_hdll__tapvpwrvgnd_1_127 VPWR VGND sky130_fd_sc_hdll__tapvpwrvgnd_1
Xsky130_fd_sc_hdll__tapvpwrvgnd_1_138 VPWR VGND sky130_fd_sc_hdll__tapvpwrvgnd_1
Xsky130_fd_sc_hdll__tapvpwrvgnd_1_149 VPWR VGND sky130_fd_sc_hdll__tapvpwrvgnd_1
Xsky130_fd_sc_hdll__nor3b_4_0 sky130_fd_sc_hdll__nor3b_4_0/A sky130_fd_sc_hdll__nor3b_4_0/C_N
+ sky130_fd_sc_hdll__nor3b_4_0/B sky130_fd_sc_hdll__nor3b_4_0/Y VPWR VGND VGND VPWR
+ sky130_fd_sc_hdll__nor3b_4
Xsky130_fd_sc_hdll__o221ai_4_0 sky130_fd_sc_hdll__o221ai_4_0/B1 sky130_fd_sc_hdll__o221ai_4_0/B2
+ sky130_fd_sc_hdll__o221ai_4_0/A2 sky130_fd_sc_hdll__o221ai_4_0/C1 sky130_fd_sc_hdll__o221ai_4_0/Y
+ sky130_fd_sc_hdll__o221ai_4_0/A1 VGND VPWR VGND VPWR sky130_fd_sc_hdll__o221ai_4
Xsky130_fd_sc_hdll__or2_6_0 sky130_fd_sc_hdll__or2_6_0/X sky130_fd_sc_hdll__or2_6_0/A
+ sky130_fd_sc_hdll__or2_6_0/B VGND VPWR VGND VPWR sky130_fd_sc_hdll__or2_6
Xsky130_fd_sc_hdll__o31ai_4_0 sky130_fd_sc_hdll__o31ai_4_0/A3 sky130_fd_sc_hdll__o31ai_4_0/A2
+ sky130_fd_sc_hdll__o31ai_4_0/A1 sky130_fd_sc_hdll__o31ai_4_0/Y sky130_fd_sc_hdll__o31ai_4_0/B1
+ VGND VPWR VPWR VGND sky130_fd_sc_hdll__o31ai_4
Xsky130_fd_sc_hdll__and3_2_0 sky130_fd_sc_hdll__and3_2_0/B sky130_fd_sc_hdll__and3_2_0/X
+ sky130_fd_sc_hdll__and3_2_0/A sky130_fd_sc_hdll__and3_2_0/C VPWR VGND VPWR VGND
+ sky130_fd_sc_hdll__and3_2
Xsky130_fd_sc_hdll__clkbuf_2_0 VPWR VGND VPWR VGND sky130_fd_sc_hdll__clkbuf_2_0/A
+ sky130_fd_sc_hdll__clkbuf_2_0/X sky130_fd_sc_hdll__clkbuf_2
Xsky130_fd_sc_hdll__clkinv_2_0 sky130_fd_sc_hdll__clkinv_2_0/Y sky130_fd_sc_hdll__clkinv_2_0/A
+ VGND VPWR VPWR VGND sky130_fd_sc_hdll__clkinv_2
Xsky130_fd_sc_hdll__sdfstp_2_0 sky130_fd_sc_hdll__sdfstp_2_0/Q sky130_fd_sc_hdll__sdfstp_2_0/SCD
+ sky130_fd_sc_hdll__sdfstp_2_0/D sky130_fd_sc_hdll__sdfstp_2_0/CLK sky130_fd_sc_hdll__sdfstp_2_0/SET_B
+ sky130_fd_sc_hdll__sdfstp_2_0/SCE VGND VPWR VPWR VGND sky130_fd_sc_hdll__sdfstp_2
Xsky130_fd_sc_hdll__tapvpwrvgnd_1_309 VPWR VGND sky130_fd_sc_hdll__tapvpwrvgnd_1
Xsky130_fd_sc_hdll__a211o_1_0 VGND VPWR VGND VPWR sky130_fd_sc_hdll__a211o_1_0/X sky130_fd_sc_hdll__a211o_1_0/A2
+ sky130_fd_sc_hdll__a211o_1_0/B1 sky130_fd_sc_hdll__a211o_1_0/A1 sky130_fd_sc_hdll__a211o_1_0/C1
+ sky130_fd_sc_hdll__a211o_1
Xsky130_fd_sc_hdll__nor2_8_0 sky130_fd_sc_hdll__nor2_8_0/Y sky130_fd_sc_hdll__nor2_8_0/A
+ sky130_fd_sc_hdll__nor2_8_0/B VPWR VGND VGND VPWR sky130_fd_sc_hdll__nor2_8
Xsky130_fd_sc_hdll__a21o_1_0 sky130_fd_sc_hdll__a21o_1_0/A2 sky130_fd_sc_hdll__a21o_1_0/A1
+ sky130_fd_sc_hdll__a21o_1_0/B1 sky130_fd_sc_hdll__a21o_1_0/X VPWR VGND VPWR VGND
+ sky130_fd_sc_hdll__a21o_1
Xsky130_fd_sc_hdll__einvn_4_0 sky130_fd_sc_hdll__einvn_4_0/TE_B sky130_fd_sc_hdll__einvn_4_0/Z
+ sky130_fd_sc_hdll__einvn_4_0/A VGND VPWR VPWR VGND sky130_fd_sc_hdll__einvn_4
Xsky130_fd_sc_hdll__tapvpwrvgnd_1_106 VPWR VGND sky130_fd_sc_hdll__tapvpwrvgnd_1
Xsky130_fd_sc_hdll__tapvpwrvgnd_1_117 VPWR VGND sky130_fd_sc_hdll__tapvpwrvgnd_1
Xsky130_fd_sc_hdll__tapvpwrvgnd_1_128 VPWR VGND sky130_fd_sc_hdll__tapvpwrvgnd_1
Xsky130_fd_sc_hdll__tapvpwrvgnd_1_139 VPWR VGND sky130_fd_sc_hdll__tapvpwrvgnd_1
Xsky130_fd_sc_hdll__nand2_16_0 sky130_fd_sc_hdll__nand2_16_0/Y sky130_fd_sc_hdll__nand2_16_0/A
+ sky130_fd_sc_hdll__nand2_16_0/B VPWR VGND VGND VPWR sky130_fd_sc_hdll__nand2_16
Xsky130_fd_sc_hdll__buf_16_0 sky130_fd_sc_hdll__buf_16_0/A sky130_fd_sc_hdll__buf_16_0/X
+ VGND VPWR VGND VPWR sky130_fd_sc_hdll__buf_16
Xsky130_fd_sc_hdll__a21boi_2_0 VGND VPWR VPWR VGND sky130_fd_sc_hdll__a21boi_2_0/B1_N
+ sky130_fd_sc_hdll__a21boi_2_0/A2 sky130_fd_sc_hdll__a21boi_2_0/A1 sky130_fd_sc_hdll__a21boi_2_0/Y
+ sky130_fd_sc_hdll__a21boi_2
Xsky130_fd_sc_hdll__nand3_2_0 sky130_fd_sc_hdll__nand3_2_0/A sky130_fd_sc_hdll__nand3_2_0/Y
+ sky130_fd_sc_hdll__nand3_2_0/B sky130_fd_sc_hdll__nand3_2_0/C VGND VPWR VGND VPWR
+ sky130_fd_sc_hdll__nand3_2
Xsky130_fd_sc_hdll__fill_4_0 VGND VPWR VPWR VGND sky130_fd_sc_hdll__fill_4
Xsky130_fd_sc_hdll__einvp_1_0 sky130_fd_sc_hdll__einvp_1_0/TE sky130_fd_sc_hdll__einvp_1_0/A
+ sky130_fd_sc_hdll__einvp_1_0/Z VPWR VGND VPWR VGND sky130_fd_sc_hdll__einvp_1
Xsky130_fd_sc_hdll__a32o_4_0 sky130_fd_sc_hdll__a32o_4_0/A3 sky130_fd_sc_hdll__a32o_4_0/X
+ sky130_fd_sc_hdll__a32o_4_0/B1 sky130_fd_sc_hdll__a32o_4_0/B2 sky130_fd_sc_hdll__a32o_4_0/A1
+ sky130_fd_sc_hdll__a32o_4_0/A2 VGND VPWR VGND VPWR sky130_fd_sc_hdll__a32o_4
Xsky130_fd_sc_hdll__mux2_2_0 VGND VPWR sky130_fd_sc_hdll__mux2_2_0/A1 sky130_fd_sc_hdll__mux2_2_0/A0
+ sky130_fd_sc_hdll__mux2_2_0/S sky130_fd_sc_hdll__mux2_2_0/X VPWR VGND sky130_fd_sc_hdll__mux2_2
Xsky130_fd_sc_hdll__and2b_2_0 VGND VPWR VPWR VGND sky130_fd_sc_hdll__and2b_2_0/X sky130_fd_sc_hdll__and2b_2_0/B
+ sky130_fd_sc_hdll__and2b_2_0/A_N sky130_fd_sc_hdll__and2b_2
Xsky130_fd_sc_hdll__tapvpwrvgnd_1_107 VPWR VGND sky130_fd_sc_hdll__tapvpwrvgnd_1
Xsky130_fd_sc_hdll__tapvpwrvgnd_1_118 VPWR VGND sky130_fd_sc_hdll__tapvpwrvgnd_1
Xsky130_fd_sc_hdll__tapvpwrvgnd_1_129 VPWR VGND sky130_fd_sc_hdll__tapvpwrvgnd_1
Xsky130_fd_sc_hdll__sdfrtp_2_0 sky130_fd_sc_hdll__sdfrtp_2_0/RESET_B VGND VPWR VGND
+ VPWR sky130_fd_sc_hdll__sdfrtp_2_0/Q sky130_fd_sc_hdll__sdfrtp_2_0/SCE sky130_fd_sc_hdll__sdfrtp_2_0/SCD
+ sky130_fd_sc_hdll__sdfrtp_2_0/D sky130_fd_sc_hdll__sdfrtp_2_0/CLK sky130_fd_sc_hdll__sdfrtp_2
Xsky130_fd_sc_hdll__and2_8_0 sky130_fd_sc_hdll__and2_8_0/X sky130_fd_sc_hdll__and2_8_0/B
+ sky130_fd_sc_hdll__and2_8_0/A VGND VPWR VGND VPWR sky130_fd_sc_hdll__and2_8
Xsky130_fd_sc_hdll__a22oi_4_0 sky130_fd_sc_hdll__a22oi_4_0/A2 sky130_fd_sc_hdll__a22oi_4_0/B2
+ sky130_fd_sc_hdll__a22oi_4_0/A1 sky130_fd_sc_hdll__a22oi_4_0/B1 sky130_fd_sc_hdll__a22oi_4_0/Y
+ VGND VPWR VGND VPWR sky130_fd_sc_hdll__a22oi_4
Xsky130_fd_sc_hdll__muxb4to1_4_0 VPWR VGND VGND VPWR sky130_fd_sc_hdll__muxb4to1_4_0/Z
+ sky130_fd_sc_hdll__muxb4to1_4_0/S[0] sky130_fd_sc_hdll__muxb4to1_4_0/S[1] sky130_fd_sc_hdll__muxb4to1_4_0/D[1]
+ sky130_fd_sc_hdll__muxb4to1_4_0/D[2] sky130_fd_sc_hdll__muxb4to1_4_0/S[2] sky130_fd_sc_hdll__muxb4to1_4_0/S[3]
+ sky130_fd_sc_hdll__muxb4to1_4_0/D[3] sky130_fd_sc_hdll__muxb4to1_4_0/D[0] sky130_fd_sc_hdll__muxb4to1_4
Xsky130_fd_sc_hdll__tapvpwrvgnd_1_290 VPWR VGND sky130_fd_sc_hdll__tapvpwrvgnd_1
Xsky130_fd_sc_hdll__o32ai_2_0 sky130_fd_sc_hdll__o32ai_2_0/A1 sky130_fd_sc_hdll__o32ai_2_0/B1
+ sky130_fd_sc_hdll__o32ai_2_0/A2 sky130_fd_sc_hdll__o32ai_2_0/A3 sky130_fd_sc_hdll__o32ai_2_0/Y
+ sky130_fd_sc_hdll__o32ai_2_0/B2 VPWR VGND VGND VPWR sky130_fd_sc_hdll__o32ai_2
Xsky130_fd_sc_hdll__o221a_4_0 sky130_fd_sc_hdll__o221a_4_0/C1 sky130_fd_sc_hdll__o221a_4_0/A1
+ sky130_fd_sc_hdll__o221a_4_0/A2 sky130_fd_sc_hdll__o221a_4_0/B1 sky130_fd_sc_hdll__o221a_4_0/B2
+ sky130_fd_sc_hdll__o221a_4_0/X VGND VPWR VGND VPWR sky130_fd_sc_hdll__o221a_4
Xsky130_fd_sc_hdll__or3b_2_0 sky130_fd_sc_hdll__or3b_2_0/A sky130_fd_sc_hdll__or3b_2_0/B
+ sky130_fd_sc_hdll__or3b_2_0/C_N sky130_fd_sc_hdll__or3b_2_0/X VPWR VGND VPWR VGND
+ sky130_fd_sc_hdll__or3b_2
Xsky130_fd_sc_hdll__xor2_2_0 sky130_fd_sc_hdll__xor2_2_0/B VPWR VGND sky130_fd_sc_hdll__xor2_2_0/X
+ sky130_fd_sc_hdll__xor2_2_0/A VPWR VGND sky130_fd_sc_hdll__xor2_2
Xsky130_fd_sc_hdll__o21ba_2_0 sky130_fd_sc_hdll__o21ba_2_0/B1_N sky130_fd_sc_hdll__o21ba_2_0/A1
+ sky130_fd_sc_hdll__o21ba_2_0/X sky130_fd_sc_hdll__o21ba_2_0/A2 VGND VPWR VGND VPWR
+ sky130_fd_sc_hdll__o21ba_2
Xsky130_fd_sc_hdll__or4bb_2_0 sky130_fd_sc_hdll__or4bb_2_0/A sky130_fd_sc_hdll__or4bb_2_0/X
+ sky130_fd_sc_hdll__or4bb_2_0/B sky130_fd_sc_hdll__or4bb_2_0/D_N sky130_fd_sc_hdll__or4bb_2_0/C_N
+ VPWR VGND VPWR VGND sky130_fd_sc_hdll__or4bb_2
Xsky130_fd_sc_hdll__dlxtn_4_0 sky130_fd_sc_hdll__dlxtn_4_0/D sky130_fd_sc_hdll__dlxtn_4_0/GATE_N
+ sky130_fd_sc_hdll__dlxtn_4_0/Q VGND VPWR VPWR VGND sky130_fd_sc_hdll__dlxtn_4
Xsky130_fd_sc_hdll__nand2_8_0 sky130_fd_sc_hdll__nand2_8_0/A sky130_fd_sc_hdll__nand2_8_0/B
+ sky130_fd_sc_hdll__nand2_8_0/Y VGND VPWR VGND VPWR sky130_fd_sc_hdll__nand2_8
Xsky130_fd_sc_hdll__tapvpwrvgnd_1_108 VPWR VGND sky130_fd_sc_hdll__tapvpwrvgnd_1
Xsky130_fd_sc_hdll__tapvpwrvgnd_1_119 VPWR VGND sky130_fd_sc_hdll__tapvpwrvgnd_1
Xsky130_fd_sc_hdll__o21bai_4_0 sky130_fd_sc_hdll__o21bai_4_0/Y sky130_fd_sc_hdll__o21bai_4_0/B1_N
+ sky130_fd_sc_hdll__o21bai_4_0/A1 sky130_fd_sc_hdll__o21bai_4_0/A2 VGND VPWR VGND
+ VPWR sky130_fd_sc_hdll__o21bai_4
Xsky130_fd_sc_hdll__a22o_4_0 sky130_fd_sc_hdll__a22o_4_0/B1 sky130_fd_sc_hdll__a22o_4_0/B2
+ sky130_fd_sc_hdll__a22o_4_0/X sky130_fd_sc_hdll__a22o_4_0/A2 sky130_fd_sc_hdll__a22o_4_0/A1
+ VGND VPWR VGND VPWR sky130_fd_sc_hdll__a22o_4
Xsky130_fd_sc_hdll__dlygate4sd2_1_0 sky130_fd_sc_hdll__dlygate4sd2_1_0/A sky130_fd_sc_hdll__dlygate4sd2_1_0/X
+ VPWR VGND VPWR VGND sky130_fd_sc_hdll__dlygate4sd2_1
Xsky130_fd_sc_hdll__nand4bb_1_0 sky130_fd_sc_hdll__nand4bb_1_0/C sky130_fd_sc_hdll__nand4bb_1_0/D
+ sky130_fd_sc_hdll__nand4bb_1_0/A_N sky130_fd_sc_hdll__nand4bb_1_0/Y sky130_fd_sc_hdll__nand4bb_1_0/B_N
+ VGND VPWR VPWR VGND sky130_fd_sc_hdll__nand4bb_1
Xsky130_fd_sc_hdll__clkbuf_12_0 sky130_fd_sc_hdll__clkbuf_12_0/A sky130_fd_sc_hdll__clkbuf_12_0/X
+ VPWR VGND VGND VPWR sky130_fd_sc_hdll__clkbuf_12
Xsky130_fd_sc_hdll__nor3b_2_0 sky130_fd_sc_hdll__nor3b_2_0/C_N sky130_fd_sc_hdll__nor3b_2_0/Y
+ sky130_fd_sc_hdll__nor3b_2_0/A sky130_fd_sc_hdll__nor3b_2_0/B VPWR VGND VGND VPWR
+ sky130_fd_sc_hdll__nor3b_2
Xsky130_fd_sc_hdll__muxb16to1_1_0 sky130_fd_sc_hdll__muxb16to1_1_0/Z VGND VPWR VGND
+ VPWR sky130_fd_sc_hdll__muxb16to1_1_0/D[0] sky130_fd_sc_hdll__muxb16to1_1_0/S[12]
+ sky130_fd_sc_hdll__muxb16to1_1_0/S[13] sky130_fd_sc_hdll__muxb16to1_1_0/S[8] sky130_fd_sc_hdll__muxb16to1_1_0/S[9]
+ sky130_fd_sc_hdll__muxb16to1_1_0/S[10] sky130_fd_sc_hdll__muxb16to1_1_0/S[11] sky130_fd_sc_hdll__muxb16to1_1_0/S[14]
+ sky130_fd_sc_hdll__muxb16to1_1_0/S[15] sky130_fd_sc_hdll__muxb16to1_1_0/D[12] sky130_fd_sc_hdll__muxb16to1_1_0/D[9]
+ sky130_fd_sc_hdll__muxb16to1_1_0/D[10] sky130_fd_sc_hdll__muxb16to1_1_0/D[13] sky130_fd_sc_hdll__muxb16to1_1_0/D[14]
+ sky130_fd_sc_hdll__muxb16to1_1_0/D[15] sky130_fd_sc_hdll__muxb16to1_1_0/D[8] sky130_fd_sc_hdll__muxb16to1_1_0/D[11]
+ sky130_fd_sc_hdll__muxb16to1_1_0/S[0] sky130_fd_sc_hdll__muxb16to1_1_0/S[1] sky130_fd_sc_hdll__muxb16to1_1_0/D[1]
+ sky130_fd_sc_hdll__muxb16to1_1_0/D[2] sky130_fd_sc_hdll__muxb16to1_1_0/S[2] sky130_fd_sc_hdll__muxb16to1_1_0/S[3]
+ sky130_fd_sc_hdll__muxb16to1_1_0/D[4] sky130_fd_sc_hdll__muxb16to1_1_0/S[4] sky130_fd_sc_hdll__muxb16to1_1_0/S[5]
+ sky130_fd_sc_hdll__muxb16to1_1_0/D[5] sky130_fd_sc_hdll__muxb16to1_1_0/D[6] sky130_fd_sc_hdll__muxb16to1_1_0/S[6]
+ sky130_fd_sc_hdll__muxb16to1_1_0/S[7] sky130_fd_sc_hdll__muxb16to1_1_0/D[7] sky130_fd_sc_hdll__muxb16to1_1_0/D[3]
+ sky130_fd_sc_hdll__muxb16to1_1
Xsky130_fd_sc_hdll__o221ai_2_0 sky130_fd_sc_hdll__o221ai_2_0/B1 sky130_fd_sc_hdll__o221ai_2_0/B2
+ sky130_fd_sc_hdll__o221ai_2_0/Y sky130_fd_sc_hdll__o221ai_2_0/A2 sky130_fd_sc_hdll__o221ai_2_0/A1
+ sky130_fd_sc_hdll__o221ai_2_0/C1 VGND VPWR VGND VPWR sky130_fd_sc_hdll__o221ai_2
Xsky130_fd_sc_hdll__ebufn_1_0 sky130_fd_sc_hdll__ebufn_1_0/Z sky130_fd_sc_hdll__ebufn_1_0/TE_B
+ sky130_fd_sc_hdll__ebufn_1_0/A VGND VPWR VPWR VGND sky130_fd_sc_hdll__ebufn_1
Xsky130_fd_sc_hdll__tapvpwrvgnd_1_291 VPWR VGND sky130_fd_sc_hdll__tapvpwrvgnd_1
Xsky130_fd_sc_hdll__tapvpwrvgnd_1_280 VPWR VGND sky130_fd_sc_hdll__tapvpwrvgnd_1
Xsky130_fd_sc_hdll__or2_4_0 sky130_fd_sc_hdll__or2_4_0/X sky130_fd_sc_hdll__or2_4_0/A
+ sky130_fd_sc_hdll__or2_4_0/B VGND VPWR VGND VPWR sky130_fd_sc_hdll__or2_4
Xsky130_fd_sc_hdll__a21oi_4_0 sky130_fd_sc_hdll__a21oi_4_0/B1 sky130_fd_sc_hdll__a21oi_4_0/A2
+ sky130_fd_sc_hdll__a21oi_4_0/A1 sky130_fd_sc_hdll__a21oi_4_0/Y VGND VPWR VGND VPWR
+ sky130_fd_sc_hdll__a21oi_4
Xsky130_fd_sc_hdll__o31ai_2_0 sky130_fd_sc_hdll__o31ai_2_0/A1 sky130_fd_sc_hdll__o31ai_2_0/Y
+ sky130_fd_sc_hdll__o31ai_2_0/B1 sky130_fd_sc_hdll__o31ai_2_0/A3 sky130_fd_sc_hdll__o31ai_2_0/A2
+ VGND VPWR VPWR VGND sky130_fd_sc_hdll__o31ai_2
Xsky130_fd_sc_hdll__o211a_4_0 sky130_fd_sc_hdll__o211a_4_0/A1 sky130_fd_sc_hdll__o211a_4_0/X
+ sky130_fd_sc_hdll__o211a_4_0/C1 sky130_fd_sc_hdll__o211a_4_0/A2 sky130_fd_sc_hdll__o211a_4_0/B1
+ VGND VPWR VGND VPWR sky130_fd_sc_hdll__o211a_4
Xsky130_fd_sc_hdll__tapvpwrvgnd_1_109 VPWR VGND sky130_fd_sc_hdll__tapvpwrvgnd_1
Xsky130_fd_sc_hdll__einvn_2_0 sky130_fd_sc_hdll__einvn_2_0/TE_B sky130_fd_sc_hdll__einvn_2_0/A
+ sky130_fd_sc_hdll__einvn_2_0/Z VPWR VGND VPWR VGND sky130_fd_sc_hdll__einvn_2
Xsky130_fd_sc_hdll__sdfsbp_1_0 sky130_fd_sc_hdll__sdfsbp_1_0/SCD sky130_fd_sc_hdll__sdfsbp_1_0/CLK
+ sky130_fd_sc_hdll__sdfsbp_1_0/Q_N sky130_fd_sc_hdll__sdfsbp_1_0/D sky130_fd_sc_hdll__sdfsbp_1_0/Q
+ VPWR VGND sky130_fd_sc_hdll__sdfsbp_1_0/SET_B sky130_fd_sc_hdll__sdfsbp_1_0/SCE
+ VPWR VGND sky130_fd_sc_hdll__sdfsbp_1
Xsky130_fd_sc_hdll__or4_1_0 sky130_fd_sc_hdll__or4_1_0/C sky130_fd_sc_hdll__or4_1_0/A
+ sky130_fd_sc_hdll__or4_1_0/X sky130_fd_sc_hdll__or4_1_0/B sky130_fd_sc_hdll__or4_1_0/D
+ VPWR VGND VPWR VGND sky130_fd_sc_hdll__or4_1
Xsky130_fd_sc_hdll__tapvpwrvgnd_1_292 VPWR VGND sky130_fd_sc_hdll__tapvpwrvgnd_1
Xsky130_fd_sc_hdll__tapvpwrvgnd_1_281 VPWR VGND sky130_fd_sc_hdll__tapvpwrvgnd_1
Xsky130_fd_sc_hdll__tapvpwrvgnd_1_270 VPWR VGND sky130_fd_sc_hdll__tapvpwrvgnd_1
Xsky130_fd_sc_hdll__inputiso0n_1_0 VPWR VGND sky130_fd_sc_hdll__inputiso0n_1_0/X sky130_fd_sc_hdll__inputiso0n_1_0/SLEEP_B
+ sky130_fd_sc_hdll__inputiso0n_1_0/A VPWR VGND sky130_fd_sc_hdll__inputiso0n_1
Xsky130_fd_sc_hdll__fill_2_0 VGND VPWR VPWR VGND sky130_fd_sc_hdll__fill_2
Xsky130_fd_sc_hdll__and4bb_1_0 VGND VPWR VGND VPWR sky130_fd_sc_hdll__and4bb_1_0/A_N
+ sky130_fd_sc_hdll__and4bb_1_0/D sky130_fd_sc_hdll__and4bb_1_0/X sky130_fd_sc_hdll__and4bb_1_0/C
+ sky130_fd_sc_hdll__and4bb_1_0/B_N sky130_fd_sc_hdll__and4bb_1
Xsky130_fd_sc_hdll__clkinvlp_4_0 sky130_fd_sc_hdll__clkinvlp_4_0/A sky130_fd_sc_hdll__clkinvlp_4_0/Y
+ VGND VPWR VPWR VGND sky130_fd_sc_hdll__clkinvlp_4
Xsky130_fd_sc_hdll__a32o_2_0 sky130_fd_sc_hdll__a32o_2_0/B2 sky130_fd_sc_hdll__a32o_2_0/X
+ sky130_fd_sc_hdll__a32o_2_0/A2 sky130_fd_sc_hdll__a32o_2_0/A3 sky130_fd_sc_hdll__a32o_2_0/A1
+ sky130_fd_sc_hdll__a32o_2_0/B1 VGND VPWR VGND VPWR sky130_fd_sc_hdll__a32o_2
Xsky130_fd_sc_hdll__nand3b_1_0 sky130_fd_sc_hdll__nand3b_1_0/B sky130_fd_sc_hdll__nand3b_1_0/C
+ sky130_fd_sc_hdll__nand3b_1_0/A_N sky130_fd_sc_hdll__nand3b_1_0/Y VPWR VGND VGND
+ VPWR sky130_fd_sc_hdll__nand3b_1
Xsky130_fd_sc_hdll__and2_6_0 sky130_fd_sc_hdll__and2_6_0/X sky130_fd_sc_hdll__and2_6_0/B
+ sky130_fd_sc_hdll__and2_6_0/A VGND VPWR VGND VPWR sky130_fd_sc_hdll__and2_6
Xsky130_fd_sc_hdll__tapvpwrvgnd_1_293 VPWR VGND sky130_fd_sc_hdll__tapvpwrvgnd_1
Xsky130_fd_sc_hdll__tapvpwrvgnd_1_282 VPWR VGND sky130_fd_sc_hdll__tapvpwrvgnd_1
Xsky130_fd_sc_hdll__tapvpwrvgnd_1_271 VPWR VGND sky130_fd_sc_hdll__tapvpwrvgnd_1
Xsky130_fd_sc_hdll__tapvpwrvgnd_1_260 VPWR VGND sky130_fd_sc_hdll__tapvpwrvgnd_1
Xsky130_fd_sc_hdll__a22oi_2_0 sky130_fd_sc_hdll__a22oi_2_0/A1 sky130_fd_sc_hdll__a22oi_2_0/A2
+ sky130_fd_sc_hdll__a22oi_2_0/B1 sky130_fd_sc_hdll__a22oi_2_0/B2 sky130_fd_sc_hdll__a22oi_2_0/Y
+ VPWR VGND VPWR VGND sky130_fd_sc_hdll__a22oi_2
Xsky130_fd_sc_hdll__muxb4to1_2_0 VGND VPWR sky130_fd_sc_hdll__muxb4to1_2_0/Z VGND
+ VPWR sky130_fd_sc_hdll__muxb4to1_2_0/S[1] sky130_fd_sc_hdll__muxb4to1_2_0/S[2] sky130_fd_sc_hdll__muxb4to1_2_0/S[3]
+ sky130_fd_sc_hdll__muxb4to1_2_0/D[1] sky130_fd_sc_hdll__muxb4to1_2_0/D[0] sky130_fd_sc_hdll__muxb4to1_2_0/D[2]
+ sky130_fd_sc_hdll__muxb4to1_2_0/D[3] sky130_fd_sc_hdll__muxb4to1_2_0/S[0] sky130_fd_sc_hdll__muxb4to1_2
Xsky130_fd_sc_hdll__sdfrbp_1_0 sky130_fd_sc_hdll__sdfrbp_1_0/RESET_B VPWR VGND VGND
+ VPWR sky130_fd_sc_hdll__sdfrbp_1_0/Q_N sky130_fd_sc_hdll__sdfrbp_1_0/D sky130_fd_sc_hdll__sdfrbp_1_0/CLK
+ sky130_fd_sc_hdll__sdfrbp_1_0/Q sky130_fd_sc_hdll__sdfrbp_1_0/SCE sky130_fd_sc_hdll__sdfrbp_1_0/SCD
+ sky130_fd_sc_hdll__sdfrbp_1
Xsky130_fd_sc_hdll__o221a_2_0 sky130_fd_sc_hdll__o221a_2_0/B2 sky130_fd_sc_hdll__o221a_2_0/A2
+ sky130_fd_sc_hdll__o221a_2_0/X sky130_fd_sc_hdll__o221a_2_0/B1 sky130_fd_sc_hdll__o221a_2_0/C1
+ sky130_fd_sc_hdll__o221a_2_0/A1 VPWR VGND VGND VPWR sky130_fd_sc_hdll__o221a_2
Xsky130_fd_sc_hdll__dlxtn_2_0 sky130_fd_sc_hdll__dlxtn_2_0/D sky130_fd_sc_hdll__dlxtn_2_0/GATE_N
+ sky130_fd_sc_hdll__dlxtn_2_0/Q VGND VPWR VPWR VGND sky130_fd_sc_hdll__dlxtn_2
Xsky130_fd_sc_hdll__a22o_2_0 sky130_fd_sc_hdll__a22o_2_0/A1 sky130_fd_sc_hdll__a22o_2_0/A2
+ sky130_fd_sc_hdll__a22o_2_0/X sky130_fd_sc_hdll__a22o_2_0/B2 sky130_fd_sc_hdll__a22o_2_0/B1
+ VPWR VGND VPWR VGND sky130_fd_sc_hdll__a22o_2
Xsky130_fd_sc_hdll__nand2_6_0 sky130_fd_sc_hdll__nand2_6_0/Y sky130_fd_sc_hdll__nand2_6_0/A
+ sky130_fd_sc_hdll__nand2_6_0/B VPWR VGND VGND VPWR sky130_fd_sc_hdll__nand2_6
Xsky130_fd_sc_hdll__o21bai_2_0 sky130_fd_sc_hdll__o21bai_2_0/B1_N sky130_fd_sc_hdll__o21bai_2_0/Y
+ sky130_fd_sc_hdll__o21bai_2_0/A2 sky130_fd_sc_hdll__o21bai_2_0/A1 VGND VPWR VGND
+ VPWR sky130_fd_sc_hdll__o21bai_2
Xsky130_fd_sc_hdll__tapvpwrvgnd_1_294 VPWR VGND sky130_fd_sc_hdll__tapvpwrvgnd_1
Xsky130_fd_sc_hdll__tapvpwrvgnd_1_283 VPWR VGND sky130_fd_sc_hdll__tapvpwrvgnd_1
Xsky130_fd_sc_hdll__tapvpwrvgnd_1_272 VPWR VGND sky130_fd_sc_hdll__tapvpwrvgnd_1
Xsky130_fd_sc_hdll__tapvpwrvgnd_1_261 VPWR VGND sky130_fd_sc_hdll__tapvpwrvgnd_1
Xsky130_fd_sc_hdll__tapvpwrvgnd_1_250 VPWR VGND sky130_fd_sc_hdll__tapvpwrvgnd_1
Xsky130_fd_sc_hdll__o21a_4_0 sky130_fd_sc_hdll__o21a_4_0/A1 sky130_fd_sc_hdll__o21a_4_0/A2
+ sky130_fd_sc_hdll__o21a_4_0/B1 sky130_fd_sc_hdll__o21a_4_0/X VGND VPWR VPWR VGND
+ sky130_fd_sc_hdll__o21a_4
Xsky130_fd_sc_hdll__a21oi_2_0 sky130_fd_sc_hdll__a21oi_2_0/B1 sky130_fd_sc_hdll__a21oi_2_0/A2
+ sky130_fd_sc_hdll__a21oi_2_0/A1 sky130_fd_sc_hdll__a21oi_2_0/Y VGND VPWR VGND VPWR
+ sky130_fd_sc_hdll__a21oi_2