* File: sky130_fd_sc_hdll__isobufsrc_16.pex.spice
* Created: Wed Sep  2 08:33:33 2020
* Program "Calibre xRC"
* Version "v2018.4_34.26"
* Nominal Temperature: 27C
* Circuit Temperature: 27C
* 
.subckt PM_SKY130_FD_SC_HDLL__ISOBUFSRC_16%A 3 5 6 8 9 11 12 14 15 17 18 20 21
+ 23 24 26 29 32 33 40
r78 40 41 39.1708 $w=3.63e-07 $l=2.95e-07 $layer=POLY_cond $X=2.225 $Y=1.202
+ $X2=2.52 $Y2=1.202
r79 39 40 36.5152 $w=3.63e-07 $l=2.75e-07 $layer=POLY_cond $X=1.95 $Y=1.202
+ $X2=2.225 $Y2=1.202
r80 38 39 32.5317 $w=3.63e-07 $l=2.45e-07 $layer=POLY_cond $X=1.705 $Y=1.202
+ $X2=1.95 $Y2=1.202
r81 37 38 36.5152 $w=3.63e-07 $l=2.75e-07 $layer=POLY_cond $X=1.43 $Y=1.202
+ $X2=1.705 $Y2=1.202
r82 36 37 32.5317 $w=3.63e-07 $l=2.45e-07 $layer=POLY_cond $X=1.185 $Y=1.202
+ $X2=1.43 $Y2=1.202
r83 35 36 36.5152 $w=3.63e-07 $l=2.75e-07 $layer=POLY_cond $X=0.91 $Y=1.202
+ $X2=1.185 $Y2=1.202
r84 34 35 32.5317 $w=3.63e-07 $l=2.45e-07 $layer=POLY_cond $X=0.665 $Y=1.202
+ $X2=0.91 $Y2=1.202
r85 32 34 11.2865 $w=3.63e-07 $l=8.5e-08 $layer=POLY_cond $X=0.58 $Y=1.202
+ $X2=0.665 $Y2=1.202
r86 32 33 72.64 $w=1.7e-07 $l=3.4e-07 $layer=licon1_POLY $count=2 $X=0.58
+ $Y=1.16 $X2=0.58 $Y2=1.16
r87 29 33 6.9845 $w=3.28e-07 $l=2e-07 $layer=LI1_cond $X=0.38 $Y=1.16 $X2=0.58
+ $Y2=1.16
r88 24 41 23.5056 $w=1.5e-07 $l=2.07e-07 $layer=POLY_cond $X=2.52 $Y=0.995
+ $X2=2.52 $Y2=1.202
r89 24 26 139.78 $w=1.5e-07 $l=4.35e-07 $layer=POLY_cond $X=2.52 $Y=0.995
+ $X2=2.52 $Y2=0.56
r90 21 40 19.1638 $w=1.8e-07 $l=2.08e-07 $layer=POLY_cond $X=2.225 $Y=1.41
+ $X2=2.225 $Y2=1.202
r91 21 23 153.972 $w=1.8e-07 $l=5.75e-07 $layer=POLY_cond $X=2.225 $Y=1.41
+ $X2=2.225 $Y2=1.985
r92 18 39 23.5056 $w=1.5e-07 $l=2.07e-07 $layer=POLY_cond $X=1.95 $Y=0.995
+ $X2=1.95 $Y2=1.202
r93 18 20 139.78 $w=1.5e-07 $l=4.35e-07 $layer=POLY_cond $X=1.95 $Y=0.995
+ $X2=1.95 $Y2=0.56
r94 15 38 19.1638 $w=1.8e-07 $l=2.08e-07 $layer=POLY_cond $X=1.705 $Y=1.41
+ $X2=1.705 $Y2=1.202
r95 15 17 153.972 $w=1.8e-07 $l=5.75e-07 $layer=POLY_cond $X=1.705 $Y=1.41
+ $X2=1.705 $Y2=1.985
r96 12 37 23.5056 $w=1.5e-07 $l=2.07e-07 $layer=POLY_cond $X=1.43 $Y=0.995
+ $X2=1.43 $Y2=1.202
r97 12 14 139.78 $w=1.5e-07 $l=4.35e-07 $layer=POLY_cond $X=1.43 $Y=0.995
+ $X2=1.43 $Y2=0.56
r98 9 36 19.1638 $w=1.8e-07 $l=2.08e-07 $layer=POLY_cond $X=1.185 $Y=1.41
+ $X2=1.185 $Y2=1.202
r99 9 11 153.972 $w=1.8e-07 $l=5.75e-07 $layer=POLY_cond $X=1.185 $Y=1.41
+ $X2=1.185 $Y2=1.985
r100 6 35 23.5056 $w=1.5e-07 $l=2.07e-07 $layer=POLY_cond $X=0.91 $Y=0.995
+ $X2=0.91 $Y2=1.202
r101 6 8 139.78 $w=1.5e-07 $l=4.35e-07 $layer=POLY_cond $X=0.91 $Y=0.995
+ $X2=0.91 $Y2=0.56
r102 3 34 19.1638 $w=1.8e-07 $l=2.08e-07 $layer=POLY_cond $X=0.665 $Y=1.41
+ $X2=0.665 $Y2=1.202
r103 3 5 153.972 $w=1.8e-07 $l=5.75e-07 $layer=POLY_cond $X=0.665 $Y=1.41
+ $X2=0.665 $Y2=1.985
.ends

.subckt PM_SKY130_FD_SC_HDLL__ISOBUFSRC_16%A_151_297# 1 2 3 4 13 15 16 18 19 21
+ 22 24 25 27 28 30 31 33 34 36 37 39 40 42 43 45 46 48 49 51 52 54 55 57 58 60
+ 61 63 64 66 67 69 70 72 73 75 76 78 79 81 82 84 85 87 88 90 91 93 94 96 97 99
+ 100 102 103 105 106 108 111 117 119 120 123 129 136 140 141 145 178
r335 178 179 3.28338 $w=3.67e-07 $l=2.5e-08 $layer=POLY_cond $X=10.355 $Y=1.202
+ $X2=10.38 $Y2=1.202
r336 175 176 3.28338 $w=3.67e-07 $l=2.5e-08 $layer=POLY_cond $X=9.86 $Y=1.202
+ $X2=9.885 $Y2=1.202
r337 174 175 58.4441 $w=3.67e-07 $l=4.45e-07 $layer=POLY_cond $X=9.415 $Y=1.202
+ $X2=9.86 $Y2=1.202
r338 173 174 3.28338 $w=3.67e-07 $l=2.5e-08 $layer=POLY_cond $X=9.39 $Y=1.202
+ $X2=9.415 $Y2=1.202
r339 172 173 58.4441 $w=3.67e-07 $l=4.45e-07 $layer=POLY_cond $X=8.945 $Y=1.202
+ $X2=9.39 $Y2=1.202
r340 171 172 3.28338 $w=3.67e-07 $l=2.5e-08 $layer=POLY_cond $X=8.92 $Y=1.202
+ $X2=8.945 $Y2=1.202
r341 170 171 58.4441 $w=3.67e-07 $l=4.45e-07 $layer=POLY_cond $X=8.475 $Y=1.202
+ $X2=8.92 $Y2=1.202
r342 169 170 3.28338 $w=3.67e-07 $l=2.5e-08 $layer=POLY_cond $X=8.45 $Y=1.202
+ $X2=8.475 $Y2=1.202
r343 168 169 58.4441 $w=3.67e-07 $l=4.45e-07 $layer=POLY_cond $X=8.005 $Y=1.202
+ $X2=8.45 $Y2=1.202
r344 167 168 3.28338 $w=3.67e-07 $l=2.5e-08 $layer=POLY_cond $X=7.98 $Y=1.202
+ $X2=8.005 $Y2=1.202
r345 166 167 58.4441 $w=3.67e-07 $l=4.45e-07 $layer=POLY_cond $X=7.535 $Y=1.202
+ $X2=7.98 $Y2=1.202
r346 165 166 3.28338 $w=3.67e-07 $l=2.5e-08 $layer=POLY_cond $X=7.51 $Y=1.202
+ $X2=7.535 $Y2=1.202
r347 164 165 58.4441 $w=3.67e-07 $l=4.45e-07 $layer=POLY_cond $X=7.065 $Y=1.202
+ $X2=7.51 $Y2=1.202
r348 163 164 3.28338 $w=3.67e-07 $l=2.5e-08 $layer=POLY_cond $X=7.04 $Y=1.202
+ $X2=7.065 $Y2=1.202
r349 162 163 58.4441 $w=3.67e-07 $l=4.45e-07 $layer=POLY_cond $X=6.595 $Y=1.202
+ $X2=7.04 $Y2=1.202
r350 161 162 3.28338 $w=3.67e-07 $l=2.5e-08 $layer=POLY_cond $X=6.57 $Y=1.202
+ $X2=6.595 $Y2=1.202
r351 160 161 58.4441 $w=3.67e-07 $l=4.45e-07 $layer=POLY_cond $X=6.125 $Y=1.202
+ $X2=6.57 $Y2=1.202
r352 159 160 3.28338 $w=3.67e-07 $l=2.5e-08 $layer=POLY_cond $X=6.1 $Y=1.202
+ $X2=6.125 $Y2=1.202
r353 158 159 58.4441 $w=3.67e-07 $l=4.45e-07 $layer=POLY_cond $X=5.655 $Y=1.202
+ $X2=6.1 $Y2=1.202
r354 157 158 3.28338 $w=3.67e-07 $l=2.5e-08 $layer=POLY_cond $X=5.63 $Y=1.202
+ $X2=5.655 $Y2=1.202
r355 156 157 58.4441 $w=3.67e-07 $l=4.45e-07 $layer=POLY_cond $X=5.185 $Y=1.202
+ $X2=5.63 $Y2=1.202
r356 155 156 3.28338 $w=3.67e-07 $l=2.5e-08 $layer=POLY_cond $X=5.16 $Y=1.202
+ $X2=5.185 $Y2=1.202
r357 154 155 58.4441 $w=3.67e-07 $l=4.45e-07 $layer=POLY_cond $X=4.715 $Y=1.202
+ $X2=5.16 $Y2=1.202
r358 153 154 3.28338 $w=3.67e-07 $l=2.5e-08 $layer=POLY_cond $X=4.69 $Y=1.202
+ $X2=4.715 $Y2=1.202
r359 152 153 58.4441 $w=3.67e-07 $l=4.45e-07 $layer=POLY_cond $X=4.245 $Y=1.202
+ $X2=4.69 $Y2=1.202
r360 151 152 3.28338 $w=3.67e-07 $l=2.5e-08 $layer=POLY_cond $X=4.22 $Y=1.202
+ $X2=4.245 $Y2=1.202
r361 150 151 58.4441 $w=3.67e-07 $l=4.45e-07 $layer=POLY_cond $X=3.775 $Y=1.202
+ $X2=4.22 $Y2=1.202
r362 149 150 3.28338 $w=3.67e-07 $l=2.5e-08 $layer=POLY_cond $X=3.75 $Y=1.202
+ $X2=3.775 $Y2=1.202
r363 146 147 3.28338 $w=3.67e-07 $l=2.5e-08 $layer=POLY_cond $X=3.28 $Y=1.202
+ $X2=3.305 $Y2=1.202
r364 140 141 5.82817 $w=4.28e-07 $l=1.25e-07 $layer=LI1_cond $X=0.9 $Y=1.62
+ $X2=0.9 $Y2=1.495
r365 137 178 15.1035 $w=3.67e-07 $l=1.15e-07 $layer=POLY_cond $X=10.24 $Y=1.202
+ $X2=10.355 $Y2=1.202
r366 137 176 46.624 $w=3.67e-07 $l=3.55e-07 $layer=POLY_cond $X=10.24 $Y=1.202
+ $X2=9.885 $Y2=1.202
r367 136 137 15.2926 $w=1.7e-07 $l=1.615e-06 $layer=licon1_POLY $count=9
+ $X=10.24 $Y=1.16 $X2=10.24 $Y2=1.16
r368 134 149 49.9074 $w=3.67e-07 $l=3.8e-07 $layer=POLY_cond $X=3.37 $Y=1.202
+ $X2=3.75 $Y2=1.202
r369 134 147 8.53679 $w=3.67e-07 $l=6.5e-08 $layer=POLY_cond $X=3.37 $Y=1.202
+ $X2=3.305 $Y2=1.202
r370 133 136 362.831 $w=2.08e-07 $l=6.87e-06 $layer=LI1_cond $X=3.37 $Y=1.18
+ $X2=10.24 $Y2=1.18
r371 133 134 15.2926 $w=1.7e-07 $l=1.615e-06 $layer=licon1_POLY $count=9 $X=3.37
+ $Y=1.16 $X2=3.37 $Y2=1.16
r372 131 145 4.79724 $w=2.1e-07 $l=3.32491e-07 $layer=LI1_cond $X=2.385 $Y=1.18
+ $X2=2.055 $Y2=1.175
r373 131 133 52.0216 $w=2.08e-07 $l=9.85e-07 $layer=LI1_cond $X=2.385 $Y=1.18
+ $X2=3.37 $Y2=1.18
r374 127 145 1.60795 $w=3e-07 $l=2.28473e-07 $layer=LI1_cond $X=2.235 $Y=1.065
+ $X2=2.055 $Y2=1.175
r375 127 129 24.7775 $w=2.98e-07 $l=6.45e-07 $layer=LI1_cond $X=2.235 $Y=1.065
+ $X2=2.235 $Y2=0.42
r376 123 125 18.2247 $w=4.28e-07 $l=6.8e-07 $layer=LI1_cond $X=1.94 $Y=1.62
+ $X2=1.94 $Y2=2.3
r377 121 145 1.60795 $w=4.3e-07 $l=1.60857e-07 $layer=LI1_cond $X=1.94 $Y=1.285
+ $X2=2.055 $Y2=1.175
r378 121 123 8.97834 $w=4.28e-07 $l=3.35e-07 $layer=LI1_cond $X=1.94 $Y=1.285
+ $X2=1.94 $Y2=1.62
r379 119 145 4.79724 $w=2.2e-07 $l=3.3e-07 $layer=LI1_cond $X=1.725 $Y=1.175
+ $X2=2.055 $Y2=1.175
r380 119 120 19.9058 $w=2.18e-07 $l=3.8e-07 $layer=LI1_cond $X=1.725 $Y=1.175
+ $X2=1.345 $Y2=1.175
r381 115 120 6.80989 $w=2.18e-07 $l=1.3e-07 $layer=LI1_cond $X=1.215 $Y=1.175
+ $X2=1.345 $Y2=1.175
r382 115 142 11.2625 $w=2.18e-07 $l=2.15e-07 $layer=LI1_cond $X=1.215 $Y=1.175
+ $X2=1 $Y2=1.175
r383 115 117 28.5895 $w=2.58e-07 $l=6.45e-07 $layer=LI1_cond $X=1.215 $Y=1.065
+ $X2=1.215 $Y2=0.42
r384 113 142 0.443598 $w=2.3e-07 $l=1.1e-07 $layer=LI1_cond $X=1 $Y=1.285 $X2=1
+ $Y2=1.175
r385 113 141 10.5223 $w=2.28e-07 $l=2.1e-07 $layer=LI1_cond $X=1 $Y=1.285 $X2=1
+ $Y2=1.495
r386 109 140 2.41209 $w=4.28e-07 $l=9e-08 $layer=LI1_cond $X=0.9 $Y=1.71 $X2=0.9
+ $Y2=1.62
r387 109 111 15.8126 $w=4.28e-07 $l=5.9e-07 $layer=LI1_cond $X=0.9 $Y=1.71
+ $X2=0.9 $Y2=2.3
r388 106 179 23.77 $w=1.5e-07 $l=2.07e-07 $layer=POLY_cond $X=10.38 $Y=0.995
+ $X2=10.38 $Y2=1.202
r389 106 108 139.78 $w=1.5e-07 $l=4.35e-07 $layer=POLY_cond $X=10.38 $Y=0.995
+ $X2=10.38 $Y2=0.56
r390 103 178 19.4219 $w=1.8e-07 $l=2.08e-07 $layer=POLY_cond $X=10.355 $Y=1.41
+ $X2=10.355 $Y2=1.202
r391 103 105 153.972 $w=1.8e-07 $l=5.75e-07 $layer=POLY_cond $X=10.355 $Y=1.41
+ $X2=10.355 $Y2=1.985
r392 100 176 19.4219 $w=1.8e-07 $l=2.08e-07 $layer=POLY_cond $X=9.885 $Y=1.41
+ $X2=9.885 $Y2=1.202
r393 100 102 153.972 $w=1.8e-07 $l=5.75e-07 $layer=POLY_cond $X=9.885 $Y=1.41
+ $X2=9.885 $Y2=1.985
r394 97 175 23.77 $w=1.5e-07 $l=2.07e-07 $layer=POLY_cond $X=9.86 $Y=0.995
+ $X2=9.86 $Y2=1.202
r395 97 99 139.78 $w=1.5e-07 $l=4.35e-07 $layer=POLY_cond $X=9.86 $Y=0.995
+ $X2=9.86 $Y2=0.56
r396 94 174 19.4219 $w=1.8e-07 $l=2.08e-07 $layer=POLY_cond $X=9.415 $Y=1.41
+ $X2=9.415 $Y2=1.202
r397 94 96 153.972 $w=1.8e-07 $l=5.75e-07 $layer=POLY_cond $X=9.415 $Y=1.41
+ $X2=9.415 $Y2=1.985
r398 91 173 23.77 $w=1.5e-07 $l=2.07e-07 $layer=POLY_cond $X=9.39 $Y=0.995
+ $X2=9.39 $Y2=1.202
r399 91 93 139.78 $w=1.5e-07 $l=4.35e-07 $layer=POLY_cond $X=9.39 $Y=0.995
+ $X2=9.39 $Y2=0.56
r400 88 172 19.4219 $w=1.8e-07 $l=2.08e-07 $layer=POLY_cond $X=8.945 $Y=1.41
+ $X2=8.945 $Y2=1.202
r401 88 90 153.972 $w=1.8e-07 $l=5.75e-07 $layer=POLY_cond $X=8.945 $Y=1.41
+ $X2=8.945 $Y2=1.985
r402 85 171 23.77 $w=1.5e-07 $l=2.07e-07 $layer=POLY_cond $X=8.92 $Y=0.995
+ $X2=8.92 $Y2=1.202
r403 85 87 139.78 $w=1.5e-07 $l=4.35e-07 $layer=POLY_cond $X=8.92 $Y=0.995
+ $X2=8.92 $Y2=0.56
r404 82 170 19.4219 $w=1.8e-07 $l=2.08e-07 $layer=POLY_cond $X=8.475 $Y=1.41
+ $X2=8.475 $Y2=1.202
r405 82 84 153.972 $w=1.8e-07 $l=5.75e-07 $layer=POLY_cond $X=8.475 $Y=1.41
+ $X2=8.475 $Y2=1.985
r406 79 169 23.77 $w=1.5e-07 $l=2.07e-07 $layer=POLY_cond $X=8.45 $Y=0.995
+ $X2=8.45 $Y2=1.202
r407 79 81 139.78 $w=1.5e-07 $l=4.35e-07 $layer=POLY_cond $X=8.45 $Y=0.995
+ $X2=8.45 $Y2=0.56
r408 76 168 19.4219 $w=1.8e-07 $l=2.08e-07 $layer=POLY_cond $X=8.005 $Y=1.41
+ $X2=8.005 $Y2=1.202
r409 76 78 153.972 $w=1.8e-07 $l=5.75e-07 $layer=POLY_cond $X=8.005 $Y=1.41
+ $X2=8.005 $Y2=1.985
r410 73 167 23.77 $w=1.5e-07 $l=2.07e-07 $layer=POLY_cond $X=7.98 $Y=0.995
+ $X2=7.98 $Y2=1.202
r411 73 75 139.78 $w=1.5e-07 $l=4.35e-07 $layer=POLY_cond $X=7.98 $Y=0.995
+ $X2=7.98 $Y2=0.56
r412 70 166 19.4219 $w=1.8e-07 $l=2.08e-07 $layer=POLY_cond $X=7.535 $Y=1.41
+ $X2=7.535 $Y2=1.202
r413 70 72 153.972 $w=1.8e-07 $l=5.75e-07 $layer=POLY_cond $X=7.535 $Y=1.41
+ $X2=7.535 $Y2=1.985
r414 67 165 23.77 $w=1.5e-07 $l=2.07e-07 $layer=POLY_cond $X=7.51 $Y=0.995
+ $X2=7.51 $Y2=1.202
r415 67 69 139.78 $w=1.5e-07 $l=4.35e-07 $layer=POLY_cond $X=7.51 $Y=0.995
+ $X2=7.51 $Y2=0.56
r416 64 164 19.4219 $w=1.8e-07 $l=2.08e-07 $layer=POLY_cond $X=7.065 $Y=1.41
+ $X2=7.065 $Y2=1.202
r417 64 66 153.972 $w=1.8e-07 $l=5.75e-07 $layer=POLY_cond $X=7.065 $Y=1.41
+ $X2=7.065 $Y2=1.985
r418 61 163 23.77 $w=1.5e-07 $l=2.07e-07 $layer=POLY_cond $X=7.04 $Y=0.995
+ $X2=7.04 $Y2=1.202
r419 61 63 139.78 $w=1.5e-07 $l=4.35e-07 $layer=POLY_cond $X=7.04 $Y=0.995
+ $X2=7.04 $Y2=0.56
r420 58 162 19.4219 $w=1.8e-07 $l=2.08e-07 $layer=POLY_cond $X=6.595 $Y=1.41
+ $X2=6.595 $Y2=1.202
r421 58 60 153.972 $w=1.8e-07 $l=5.75e-07 $layer=POLY_cond $X=6.595 $Y=1.41
+ $X2=6.595 $Y2=1.985
r422 55 161 23.77 $w=1.5e-07 $l=2.07e-07 $layer=POLY_cond $X=6.57 $Y=0.995
+ $X2=6.57 $Y2=1.202
r423 55 57 139.78 $w=1.5e-07 $l=4.35e-07 $layer=POLY_cond $X=6.57 $Y=0.995
+ $X2=6.57 $Y2=0.56
r424 52 160 19.4219 $w=1.8e-07 $l=2.08e-07 $layer=POLY_cond $X=6.125 $Y=1.41
+ $X2=6.125 $Y2=1.202
r425 52 54 153.972 $w=1.8e-07 $l=5.75e-07 $layer=POLY_cond $X=6.125 $Y=1.41
+ $X2=6.125 $Y2=1.985
r426 49 159 23.77 $w=1.5e-07 $l=2.07e-07 $layer=POLY_cond $X=6.1 $Y=0.995
+ $X2=6.1 $Y2=1.202
r427 49 51 139.78 $w=1.5e-07 $l=4.35e-07 $layer=POLY_cond $X=6.1 $Y=0.995
+ $X2=6.1 $Y2=0.56
r428 46 158 19.4219 $w=1.8e-07 $l=2.08e-07 $layer=POLY_cond $X=5.655 $Y=1.41
+ $X2=5.655 $Y2=1.202
r429 46 48 153.972 $w=1.8e-07 $l=5.75e-07 $layer=POLY_cond $X=5.655 $Y=1.41
+ $X2=5.655 $Y2=1.985
r430 43 157 23.77 $w=1.5e-07 $l=2.07e-07 $layer=POLY_cond $X=5.63 $Y=0.995
+ $X2=5.63 $Y2=1.202
r431 43 45 139.78 $w=1.5e-07 $l=4.35e-07 $layer=POLY_cond $X=5.63 $Y=0.995
+ $X2=5.63 $Y2=0.56
r432 40 156 19.4219 $w=1.8e-07 $l=2.08e-07 $layer=POLY_cond $X=5.185 $Y=1.41
+ $X2=5.185 $Y2=1.202
r433 40 42 153.972 $w=1.8e-07 $l=5.75e-07 $layer=POLY_cond $X=5.185 $Y=1.41
+ $X2=5.185 $Y2=1.985
r434 37 155 23.77 $w=1.5e-07 $l=2.07e-07 $layer=POLY_cond $X=5.16 $Y=0.995
+ $X2=5.16 $Y2=1.202
r435 37 39 139.78 $w=1.5e-07 $l=4.35e-07 $layer=POLY_cond $X=5.16 $Y=0.995
+ $X2=5.16 $Y2=0.56
r436 34 154 19.4219 $w=1.8e-07 $l=2.08e-07 $layer=POLY_cond $X=4.715 $Y=1.41
+ $X2=4.715 $Y2=1.202
r437 34 36 153.972 $w=1.8e-07 $l=5.75e-07 $layer=POLY_cond $X=4.715 $Y=1.41
+ $X2=4.715 $Y2=1.985
r438 31 153 23.77 $w=1.5e-07 $l=2.07e-07 $layer=POLY_cond $X=4.69 $Y=0.995
+ $X2=4.69 $Y2=1.202
r439 31 33 139.78 $w=1.5e-07 $l=4.35e-07 $layer=POLY_cond $X=4.69 $Y=0.995
+ $X2=4.69 $Y2=0.56
r440 28 152 19.4219 $w=1.8e-07 $l=2.08e-07 $layer=POLY_cond $X=4.245 $Y=1.41
+ $X2=4.245 $Y2=1.202
r441 28 30 153.972 $w=1.8e-07 $l=5.75e-07 $layer=POLY_cond $X=4.245 $Y=1.41
+ $X2=4.245 $Y2=1.985
r442 25 151 23.77 $w=1.5e-07 $l=2.07e-07 $layer=POLY_cond $X=4.22 $Y=0.995
+ $X2=4.22 $Y2=1.202
r443 25 27 139.78 $w=1.5e-07 $l=4.35e-07 $layer=POLY_cond $X=4.22 $Y=0.995
+ $X2=4.22 $Y2=0.56
r444 22 150 19.4219 $w=1.8e-07 $l=2.08e-07 $layer=POLY_cond $X=3.775 $Y=1.41
+ $X2=3.775 $Y2=1.202
r445 22 24 153.972 $w=1.8e-07 $l=5.75e-07 $layer=POLY_cond $X=3.775 $Y=1.41
+ $X2=3.775 $Y2=1.985
r446 19 149 23.77 $w=1.5e-07 $l=2.07e-07 $layer=POLY_cond $X=3.75 $Y=0.995
+ $X2=3.75 $Y2=1.202
r447 19 21 139.78 $w=1.5e-07 $l=4.35e-07 $layer=POLY_cond $X=3.75 $Y=0.995
+ $X2=3.75 $Y2=0.56
r448 16 147 19.4219 $w=1.8e-07 $l=2.08e-07 $layer=POLY_cond $X=3.305 $Y=1.41
+ $X2=3.305 $Y2=1.202
r449 16 18 153.972 $w=1.8e-07 $l=5.75e-07 $layer=POLY_cond $X=3.305 $Y=1.41
+ $X2=3.305 $Y2=1.985
r450 13 146 23.77 $w=1.5e-07 $l=2.07e-07 $layer=POLY_cond $X=3.28 $Y=0.995
+ $X2=3.28 $Y2=1.202
r451 13 15 139.78 $w=1.5e-07 $l=4.35e-07 $layer=POLY_cond $X=3.28 $Y=0.995
+ $X2=3.28 $Y2=0.56
r452 4 125 400 $w=1.7e-07 $l=8.84534e-07 $layer=licon1_PDIFF $count=1 $X=1.795
+ $Y=1.485 $X2=1.94 $Y2=2.3
r453 4 123 400 $w=1.7e-07 $l=2.01494e-07 $layer=licon1_PDIFF $count=1 $X=1.795
+ $Y=1.485 $X2=1.94 $Y2=1.62
r454 3 140 400 $w=1.7e-07 $l=2.01494e-07 $layer=licon1_PDIFF $count=1 $X=0.755
+ $Y=1.485 $X2=0.9 $Y2=1.62
r455 3 111 400 $w=1.7e-07 $l=8.84534e-07 $layer=licon1_PDIFF $count=1 $X=0.755
+ $Y=1.485 $X2=0.9 $Y2=2.3
r456 2 129 91 $w=1.7e-07 $l=2.6163e-07 $layer=licon1_NDIFF $count=2 $X=2.025
+ $Y=0.235 $X2=2.21 $Y2=0.42
r457 1 117 91 $w=1.7e-07 $l=2.6163e-07 $layer=licon1_NDIFF $count=2 $X=0.985
+ $Y=0.235 $X2=1.17 $Y2=0.42
.ends

.subckt PM_SKY130_FD_SC_HDLL__ISOBUFSRC_16%SLEEP 1 3 4 6 7 9 10 12 13 15 16 18
+ 19 21 22 24 25 27 28 30 31 33 34 36 37 39 40 42 43 45 46 48 49 51 52 54 55 57
+ 58 60 61 63 64 66 67 69 70 72 73 75 76 78 79 81 82 84 85 87 88 90 91 93 94 96
+ 97 132 135 140
r277 135 136 3.28338 $w=3.67e-07 $l=2.5e-08 $layer=POLY_cond $X=17.875 $Y=1.202
+ $X2=17.9 $Y2=1.202
r278 134 135 61.7275 $w=3.67e-07 $l=4.7e-07 $layer=POLY_cond $X=17.405 $Y=1.202
+ $X2=17.875 $Y2=1.202
r279 133 134 3.28338 $w=3.67e-07 $l=2.5e-08 $layer=POLY_cond $X=17.38 $Y=1.202
+ $X2=17.405 $Y2=1.202
r280 131 133 1.31335 $w=3.67e-07 $l=1e-08 $layer=POLY_cond $X=17.37 $Y=1.202
+ $X2=17.38 $Y2=1.202
r281 131 132 16.1422 $w=1.7e-07 $l=1.53e-06 $layer=licon1_POLY $count=9 $X=17.37
+ $Y=1.16 $X2=17.37 $Y2=1.16
r282 129 131 57.1308 $w=3.67e-07 $l=4.35e-07 $layer=POLY_cond $X=16.935 $Y=1.202
+ $X2=17.37 $Y2=1.202
r283 128 129 3.28338 $w=3.67e-07 $l=2.5e-08 $layer=POLY_cond $X=16.91 $Y=1.202
+ $X2=16.935 $Y2=1.202
r284 127 128 58.4441 $w=3.67e-07 $l=4.45e-07 $layer=POLY_cond $X=16.465 $Y=1.202
+ $X2=16.91 $Y2=1.202
r285 126 127 3.28338 $w=3.67e-07 $l=2.5e-08 $layer=POLY_cond $X=16.44 $Y=1.202
+ $X2=16.465 $Y2=1.202
r286 125 126 58.4441 $w=3.67e-07 $l=4.45e-07 $layer=POLY_cond $X=15.995 $Y=1.202
+ $X2=16.44 $Y2=1.202
r287 124 125 3.28338 $w=3.67e-07 $l=2.5e-08 $layer=POLY_cond $X=15.97 $Y=1.202
+ $X2=15.995 $Y2=1.202
r288 123 124 58.4441 $w=3.67e-07 $l=4.45e-07 $layer=POLY_cond $X=15.525 $Y=1.202
+ $X2=15.97 $Y2=1.202
r289 122 123 3.28338 $w=3.67e-07 $l=2.5e-08 $layer=POLY_cond $X=15.5 $Y=1.202
+ $X2=15.525 $Y2=1.202
r290 121 122 58.4441 $w=3.67e-07 $l=4.45e-07 $layer=POLY_cond $X=15.055 $Y=1.202
+ $X2=15.5 $Y2=1.202
r291 120 121 3.28338 $w=3.67e-07 $l=2.5e-08 $layer=POLY_cond $X=15.03 $Y=1.202
+ $X2=15.055 $Y2=1.202
r292 119 120 58.4441 $w=3.67e-07 $l=4.45e-07 $layer=POLY_cond $X=14.585 $Y=1.202
+ $X2=15.03 $Y2=1.202
r293 118 119 3.28338 $w=3.67e-07 $l=2.5e-08 $layer=POLY_cond $X=14.56 $Y=1.202
+ $X2=14.585 $Y2=1.202
r294 117 118 58.4441 $w=3.67e-07 $l=4.45e-07 $layer=POLY_cond $X=14.115 $Y=1.202
+ $X2=14.56 $Y2=1.202
r295 116 117 3.28338 $w=3.67e-07 $l=2.5e-08 $layer=POLY_cond $X=14.09 $Y=1.202
+ $X2=14.115 $Y2=1.202
r296 115 116 58.4441 $w=3.67e-07 $l=4.45e-07 $layer=POLY_cond $X=13.645 $Y=1.202
+ $X2=14.09 $Y2=1.202
r297 114 115 3.28338 $w=3.67e-07 $l=2.5e-08 $layer=POLY_cond $X=13.62 $Y=1.202
+ $X2=13.645 $Y2=1.202
r298 113 114 58.4441 $w=3.67e-07 $l=4.45e-07 $layer=POLY_cond $X=13.175 $Y=1.202
+ $X2=13.62 $Y2=1.202
r299 112 113 3.28338 $w=3.67e-07 $l=2.5e-08 $layer=POLY_cond $X=13.15 $Y=1.202
+ $X2=13.175 $Y2=1.202
r300 111 112 58.4441 $w=3.67e-07 $l=4.45e-07 $layer=POLY_cond $X=12.705 $Y=1.202
+ $X2=13.15 $Y2=1.202
r301 110 111 3.28338 $w=3.67e-07 $l=2.5e-08 $layer=POLY_cond $X=12.68 $Y=1.202
+ $X2=12.705 $Y2=1.202
r302 109 110 58.4441 $w=3.67e-07 $l=4.45e-07 $layer=POLY_cond $X=12.235 $Y=1.202
+ $X2=12.68 $Y2=1.202
r303 108 109 3.28338 $w=3.67e-07 $l=2.5e-08 $layer=POLY_cond $X=12.21 $Y=1.202
+ $X2=12.235 $Y2=1.202
r304 107 108 58.4441 $w=3.67e-07 $l=4.45e-07 $layer=POLY_cond $X=11.765 $Y=1.202
+ $X2=12.21 $Y2=1.202
r305 106 107 3.28338 $w=3.67e-07 $l=2.5e-08 $layer=POLY_cond $X=11.74 $Y=1.202
+ $X2=11.765 $Y2=1.202
r306 105 106 58.4441 $w=3.67e-07 $l=4.45e-07 $layer=POLY_cond $X=11.295 $Y=1.202
+ $X2=11.74 $Y2=1.202
r307 104 105 3.28338 $w=3.67e-07 $l=2.5e-08 $layer=POLY_cond $X=11.27 $Y=1.202
+ $X2=11.295 $Y2=1.202
r308 103 140 89.2554 $w=2.08e-07 $l=1.69e-06 $layer=LI1_cond $X=10.89 $Y=1.18
+ $X2=12.58 $Y2=1.18
r309 102 104 49.9074 $w=3.67e-07 $l=3.8e-07 $layer=POLY_cond $X=10.89 $Y=1.202
+ $X2=11.27 $Y2=1.202
r310 102 103 16.1422 $w=1.7e-07 $l=1.53e-06 $layer=licon1_POLY $count=9 $X=10.89
+ $Y=1.16 $X2=10.89 $Y2=1.16
r311 100 102 8.53679 $w=3.67e-07 $l=6.5e-08 $layer=POLY_cond $X=10.825 $Y=1.202
+ $X2=10.89 $Y2=1.202
r312 99 100 3.28338 $w=3.67e-07 $l=2.5e-08 $layer=POLY_cond $X=10.8 $Y=1.202
+ $X2=10.825 $Y2=1.202
r313 97 132 171.117 $w=2.08e-07 $l=3.24e-06 $layer=LI1_cond $X=14.13 $Y=1.18
+ $X2=17.37 $Y2=1.18
r314 97 140 81.8615 $w=2.08e-07 $l=1.55e-06 $layer=LI1_cond $X=14.13 $Y=1.18
+ $X2=12.58 $Y2=1.18
r315 94 136 23.77 $w=1.5e-07 $l=2.07e-07 $layer=POLY_cond $X=17.9 $Y=0.995
+ $X2=17.9 $Y2=1.202
r316 94 96 139.78 $w=1.5e-07 $l=4.35e-07 $layer=POLY_cond $X=17.9 $Y=0.995
+ $X2=17.9 $Y2=0.56
r317 91 135 19.4219 $w=1.8e-07 $l=2.08e-07 $layer=POLY_cond $X=17.875 $Y=1.41
+ $X2=17.875 $Y2=1.202
r318 91 93 153.972 $w=1.8e-07 $l=5.75e-07 $layer=POLY_cond $X=17.875 $Y=1.41
+ $X2=17.875 $Y2=1.985
r319 88 134 19.4219 $w=1.8e-07 $l=2.08e-07 $layer=POLY_cond $X=17.405 $Y=1.41
+ $X2=17.405 $Y2=1.202
r320 88 90 153.972 $w=1.8e-07 $l=5.75e-07 $layer=POLY_cond $X=17.405 $Y=1.41
+ $X2=17.405 $Y2=1.985
r321 85 133 23.77 $w=1.5e-07 $l=2.07e-07 $layer=POLY_cond $X=17.38 $Y=0.995
+ $X2=17.38 $Y2=1.202
r322 85 87 139.78 $w=1.5e-07 $l=4.35e-07 $layer=POLY_cond $X=17.38 $Y=0.995
+ $X2=17.38 $Y2=0.56
r323 82 129 19.4219 $w=1.8e-07 $l=2.08e-07 $layer=POLY_cond $X=16.935 $Y=1.41
+ $X2=16.935 $Y2=1.202
r324 82 84 153.972 $w=1.8e-07 $l=5.75e-07 $layer=POLY_cond $X=16.935 $Y=1.41
+ $X2=16.935 $Y2=1.985
r325 79 128 23.77 $w=1.5e-07 $l=2.07e-07 $layer=POLY_cond $X=16.91 $Y=0.995
+ $X2=16.91 $Y2=1.202
r326 79 81 139.78 $w=1.5e-07 $l=4.35e-07 $layer=POLY_cond $X=16.91 $Y=0.995
+ $X2=16.91 $Y2=0.56
r327 76 127 19.4219 $w=1.8e-07 $l=2.08e-07 $layer=POLY_cond $X=16.465 $Y=1.41
+ $X2=16.465 $Y2=1.202
r328 76 78 153.972 $w=1.8e-07 $l=5.75e-07 $layer=POLY_cond $X=16.465 $Y=1.41
+ $X2=16.465 $Y2=1.985
r329 73 126 23.77 $w=1.5e-07 $l=2.07e-07 $layer=POLY_cond $X=16.44 $Y=0.995
+ $X2=16.44 $Y2=1.202
r330 73 75 139.78 $w=1.5e-07 $l=4.35e-07 $layer=POLY_cond $X=16.44 $Y=0.995
+ $X2=16.44 $Y2=0.56
r331 70 125 19.4219 $w=1.8e-07 $l=2.08e-07 $layer=POLY_cond $X=15.995 $Y=1.41
+ $X2=15.995 $Y2=1.202
r332 70 72 153.972 $w=1.8e-07 $l=5.75e-07 $layer=POLY_cond $X=15.995 $Y=1.41
+ $X2=15.995 $Y2=1.985
r333 67 124 23.77 $w=1.5e-07 $l=2.07e-07 $layer=POLY_cond $X=15.97 $Y=0.995
+ $X2=15.97 $Y2=1.202
r334 67 69 139.78 $w=1.5e-07 $l=4.35e-07 $layer=POLY_cond $X=15.97 $Y=0.995
+ $X2=15.97 $Y2=0.56
r335 64 123 19.4219 $w=1.8e-07 $l=2.08e-07 $layer=POLY_cond $X=15.525 $Y=1.41
+ $X2=15.525 $Y2=1.202
r336 64 66 153.972 $w=1.8e-07 $l=5.75e-07 $layer=POLY_cond $X=15.525 $Y=1.41
+ $X2=15.525 $Y2=1.985
r337 61 122 23.77 $w=1.5e-07 $l=2.07e-07 $layer=POLY_cond $X=15.5 $Y=0.995
+ $X2=15.5 $Y2=1.202
r338 61 63 139.78 $w=1.5e-07 $l=4.35e-07 $layer=POLY_cond $X=15.5 $Y=0.995
+ $X2=15.5 $Y2=0.56
r339 58 121 19.4219 $w=1.8e-07 $l=2.08e-07 $layer=POLY_cond $X=15.055 $Y=1.41
+ $X2=15.055 $Y2=1.202
r340 58 60 153.972 $w=1.8e-07 $l=5.75e-07 $layer=POLY_cond $X=15.055 $Y=1.41
+ $X2=15.055 $Y2=1.985
r341 55 120 23.77 $w=1.5e-07 $l=2.07e-07 $layer=POLY_cond $X=15.03 $Y=0.995
+ $X2=15.03 $Y2=1.202
r342 55 57 139.78 $w=1.5e-07 $l=4.35e-07 $layer=POLY_cond $X=15.03 $Y=0.995
+ $X2=15.03 $Y2=0.56
r343 52 119 19.4219 $w=1.8e-07 $l=2.08e-07 $layer=POLY_cond $X=14.585 $Y=1.41
+ $X2=14.585 $Y2=1.202
r344 52 54 153.972 $w=1.8e-07 $l=5.75e-07 $layer=POLY_cond $X=14.585 $Y=1.41
+ $X2=14.585 $Y2=1.985
r345 49 118 23.77 $w=1.5e-07 $l=2.07e-07 $layer=POLY_cond $X=14.56 $Y=0.995
+ $X2=14.56 $Y2=1.202
r346 49 51 139.78 $w=1.5e-07 $l=4.35e-07 $layer=POLY_cond $X=14.56 $Y=0.995
+ $X2=14.56 $Y2=0.56
r347 46 117 19.4219 $w=1.8e-07 $l=2.08e-07 $layer=POLY_cond $X=14.115 $Y=1.41
+ $X2=14.115 $Y2=1.202
r348 46 48 153.972 $w=1.8e-07 $l=5.75e-07 $layer=POLY_cond $X=14.115 $Y=1.41
+ $X2=14.115 $Y2=1.985
r349 43 116 23.77 $w=1.5e-07 $l=2.07e-07 $layer=POLY_cond $X=14.09 $Y=0.995
+ $X2=14.09 $Y2=1.202
r350 43 45 139.78 $w=1.5e-07 $l=4.35e-07 $layer=POLY_cond $X=14.09 $Y=0.995
+ $X2=14.09 $Y2=0.56
r351 40 115 19.4219 $w=1.8e-07 $l=2.08e-07 $layer=POLY_cond $X=13.645 $Y=1.41
+ $X2=13.645 $Y2=1.202
r352 40 42 153.972 $w=1.8e-07 $l=5.75e-07 $layer=POLY_cond $X=13.645 $Y=1.41
+ $X2=13.645 $Y2=1.985
r353 37 114 23.77 $w=1.5e-07 $l=2.07e-07 $layer=POLY_cond $X=13.62 $Y=0.995
+ $X2=13.62 $Y2=1.202
r354 37 39 139.78 $w=1.5e-07 $l=4.35e-07 $layer=POLY_cond $X=13.62 $Y=0.995
+ $X2=13.62 $Y2=0.56
r355 34 113 19.4219 $w=1.8e-07 $l=2.08e-07 $layer=POLY_cond $X=13.175 $Y=1.41
+ $X2=13.175 $Y2=1.202
r356 34 36 153.972 $w=1.8e-07 $l=5.75e-07 $layer=POLY_cond $X=13.175 $Y=1.41
+ $X2=13.175 $Y2=1.985
r357 31 112 23.77 $w=1.5e-07 $l=2.07e-07 $layer=POLY_cond $X=13.15 $Y=0.995
+ $X2=13.15 $Y2=1.202
r358 31 33 139.78 $w=1.5e-07 $l=4.35e-07 $layer=POLY_cond $X=13.15 $Y=0.995
+ $X2=13.15 $Y2=0.56
r359 28 111 19.4219 $w=1.8e-07 $l=2.08e-07 $layer=POLY_cond $X=12.705 $Y=1.41
+ $X2=12.705 $Y2=1.202
r360 28 30 153.972 $w=1.8e-07 $l=5.75e-07 $layer=POLY_cond $X=12.705 $Y=1.41
+ $X2=12.705 $Y2=1.985
r361 25 110 23.77 $w=1.5e-07 $l=2.07e-07 $layer=POLY_cond $X=12.68 $Y=0.995
+ $X2=12.68 $Y2=1.202
r362 25 27 139.78 $w=1.5e-07 $l=4.35e-07 $layer=POLY_cond $X=12.68 $Y=0.995
+ $X2=12.68 $Y2=0.56
r363 22 109 19.4219 $w=1.8e-07 $l=2.08e-07 $layer=POLY_cond $X=12.235 $Y=1.41
+ $X2=12.235 $Y2=1.202
r364 22 24 153.972 $w=1.8e-07 $l=5.75e-07 $layer=POLY_cond $X=12.235 $Y=1.41
+ $X2=12.235 $Y2=1.985
r365 19 108 23.77 $w=1.5e-07 $l=2.07e-07 $layer=POLY_cond $X=12.21 $Y=0.995
+ $X2=12.21 $Y2=1.202
r366 19 21 139.78 $w=1.5e-07 $l=4.35e-07 $layer=POLY_cond $X=12.21 $Y=0.995
+ $X2=12.21 $Y2=0.56
r367 16 107 19.4219 $w=1.8e-07 $l=2.08e-07 $layer=POLY_cond $X=11.765 $Y=1.41
+ $X2=11.765 $Y2=1.202
r368 16 18 153.972 $w=1.8e-07 $l=5.75e-07 $layer=POLY_cond $X=11.765 $Y=1.41
+ $X2=11.765 $Y2=1.985
r369 13 106 23.77 $w=1.5e-07 $l=2.07e-07 $layer=POLY_cond $X=11.74 $Y=0.995
+ $X2=11.74 $Y2=1.202
r370 13 15 139.78 $w=1.5e-07 $l=4.35e-07 $layer=POLY_cond $X=11.74 $Y=0.995
+ $X2=11.74 $Y2=0.56
r371 10 105 19.4219 $w=1.8e-07 $l=2.08e-07 $layer=POLY_cond $X=11.295 $Y=1.41
+ $X2=11.295 $Y2=1.202
r372 10 12 153.972 $w=1.8e-07 $l=5.75e-07 $layer=POLY_cond $X=11.295 $Y=1.41
+ $X2=11.295 $Y2=1.985
r373 7 104 23.77 $w=1.5e-07 $l=2.07e-07 $layer=POLY_cond $X=11.27 $Y=0.995
+ $X2=11.27 $Y2=1.202
r374 7 9 139.78 $w=1.5e-07 $l=4.35e-07 $layer=POLY_cond $X=11.27 $Y=0.995
+ $X2=11.27 $Y2=0.56
r375 4 100 19.4219 $w=1.8e-07 $l=2.08e-07 $layer=POLY_cond $X=10.825 $Y=1.41
+ $X2=10.825 $Y2=1.202
r376 4 6 153.972 $w=1.8e-07 $l=5.75e-07 $layer=POLY_cond $X=10.825 $Y=1.41
+ $X2=10.825 $Y2=1.985
r377 1 99 23.77 $w=1.5e-07 $l=2.07e-07 $layer=POLY_cond $X=10.8 $Y=0.995
+ $X2=10.8 $Y2=1.202
r378 1 3 139.78 $w=1.5e-07 $l=4.35e-07 $layer=POLY_cond $X=10.8 $Y=0.995
+ $X2=10.8 $Y2=0.56
.ends

.subckt PM_SKY130_FD_SC_HDLL__ISOBUFSRC_16%VPWR 1 2 3 4 5 6 7 8 9 10 11 36 42 48
+ 52 56 58 62 66 70 74 78 82 86 89 90 92 93 95 96 98 99 101 102 104 105 107 108
+ 110 111 112 121 148 149 152 155 158
r237 158 159 4.65 $w=1.7e-07 $l=3.4e-07 $layer=mcon $count=2 $X=4.37 $Y=2.72
+ $X2=4.37 $Y2=2.72
r238 156 159 0.261778 $w=4.8e-07 $l=9.2e-07 $layer=MET1_cond $X=3.45 $Y=2.72
+ $X2=4.37 $Y2=2.72
r239 155 156 4.65 $w=1.7e-07 $l=3.4e-07 $layer=mcon $count=2 $X=3.45 $Y=2.72
+ $X2=3.45 $Y2=2.72
r240 153 156 0.261778 $w=4.8e-07 $l=9.2e-07 $layer=MET1_cond $X=2.53 $Y=2.72
+ $X2=3.45 $Y2=2.72
r241 152 153 9.3 $w=1.7e-07 $l=1.7e-07 $layer=mcon $count=1 $X=2.53 $Y=2.72
+ $X2=2.53 $Y2=2.72
r242 148 149 1.03333 $w=1.7e-07 $l=1.53e-06 $layer=mcon $count=9 $X=18.17
+ $Y=2.72 $X2=18.17 $Y2=2.72
r243 146 149 2.22512 $w=4.8e-07 $l=7.82e-06 $layer=MET1_cond $X=10.35 $Y=2.72
+ $X2=18.17 $Y2=2.72
r244 145 148 510.182 $w=1.68e-07 $l=7.82e-06 $layer=LI1_cond $X=10.35 $Y=2.72
+ $X2=18.17 $Y2=2.72
r245 145 146 1.03333 $w=1.7e-07 $l=1.53e-06 $layer=mcon $count=9 $X=10.35
+ $Y=2.72 $X2=10.35 $Y2=2.72
r246 143 146 0.130889 $w=4.8e-07 $l=4.6e-07 $layer=MET1_cond $X=9.89 $Y=2.72
+ $X2=10.35 $Y2=2.72
r247 142 143 4.65 $w=1.7e-07 $l=3.4e-07 $layer=mcon $count=2 $X=9.89 $Y=2.72
+ $X2=9.89 $Y2=2.72
r248 140 143 0.261778 $w=4.8e-07 $l=9.2e-07 $layer=MET1_cond $X=8.97 $Y=2.72
+ $X2=9.89 $Y2=2.72
r249 139 140 4.65 $w=1.7e-07 $l=3.4e-07 $layer=mcon $count=2 $X=8.97 $Y=2.72
+ $X2=8.97 $Y2=2.72
r250 137 140 0.261778 $w=4.8e-07 $l=9.2e-07 $layer=MET1_cond $X=8.05 $Y=2.72
+ $X2=8.97 $Y2=2.72
r251 136 137 4.65 $w=1.7e-07 $l=3.4e-07 $layer=mcon $count=2 $X=8.05 $Y=2.72
+ $X2=8.05 $Y2=2.72
r252 134 137 0.261778 $w=4.8e-07 $l=9.2e-07 $layer=MET1_cond $X=7.13 $Y=2.72
+ $X2=8.05 $Y2=2.72
r253 133 134 4.65 $w=1.7e-07 $l=3.4e-07 $layer=mcon $count=2 $X=7.13 $Y=2.72
+ $X2=7.13 $Y2=2.72
r254 131 134 0.261778 $w=4.8e-07 $l=9.2e-07 $layer=MET1_cond $X=6.21 $Y=2.72
+ $X2=7.13 $Y2=2.72
r255 130 131 4.65 $w=1.7e-07 $l=3.4e-07 $layer=mcon $count=2 $X=6.21 $Y=2.72
+ $X2=6.21 $Y2=2.72
r256 128 131 0.261778 $w=4.8e-07 $l=9.2e-07 $layer=MET1_cond $X=5.29 $Y=2.72
+ $X2=6.21 $Y2=2.72
r257 128 159 0.261778 $w=4.8e-07 $l=9.2e-07 $layer=MET1_cond $X=5.29 $Y=2.72
+ $X2=4.37 $Y2=2.72
r258 127 128 4.65 $w=1.7e-07 $l=3.4e-07 $layer=mcon $count=2 $X=5.29 $Y=2.72
+ $X2=5.29 $Y2=2.72
r259 125 158 7.02821 $w=1.7e-07 $l=1.25e-07 $layer=LI1_cond $X=4.605 $Y=2.72
+ $X2=4.48 $Y2=2.72
r260 125 127 44.6898 $w=1.68e-07 $l=6.85e-07 $layer=LI1_cond $X=4.605 $Y=2.72
+ $X2=5.29 $Y2=2.72
r261 124 153 0.130889 $w=4.8e-07 $l=4.6e-07 $layer=MET1_cond $X=2.07 $Y=2.72
+ $X2=2.53 $Y2=2.72
r262 123 124 4.65 $w=1.7e-07 $l=3.4e-07 $layer=mcon $count=2 $X=2.07 $Y=2.72
+ $X2=2.07 $Y2=2.72
r263 121 152 7.94884 $w=1.7e-07 $l=1.47e-07 $layer=LI1_cond $X=2.375 $Y=2.72
+ $X2=2.522 $Y2=2.72
r264 121 123 19.8984 $w=1.68e-07 $l=3.05e-07 $layer=LI1_cond $X=2.375 $Y=2.72
+ $X2=2.07 $Y2=2.72
r265 120 124 0.261778 $w=4.8e-07 $l=9.2e-07 $layer=MET1_cond $X=1.15 $Y=2.72
+ $X2=2.07 $Y2=2.72
r266 119 120 4.65 $w=1.7e-07 $l=3.4e-07 $layer=mcon $count=2 $X=1.15 $Y=2.72
+ $X2=1.15 $Y2=2.72
r267 112 120 0.261778 $w=4.8e-07 $l=9.2e-07 $layer=MET1_cond $X=0.23 $Y=2.72
+ $X2=1.15 $Y2=2.72
r268 112 115 9.3 $w=1.7e-07 $l=1.7e-07 $layer=mcon $count=1 $X=0.23 $Y=2.72
+ $X2=0.23 $Y2=2.72
r269 110 142 6.85027 $w=1.68e-07 $l=1.05e-07 $layer=LI1_cond $X=9.995 $Y=2.72
+ $X2=9.89 $Y2=2.72
r270 110 111 7.02821 $w=1.7e-07 $l=1.25e-07 $layer=LI1_cond $X=9.995 $Y=2.72
+ $X2=10.12 $Y2=2.72
r271 109 145 6.85027 $w=1.68e-07 $l=1.05e-07 $layer=LI1_cond $X=10.245 $Y=2.72
+ $X2=10.35 $Y2=2.72
r272 109 111 7.02821 $w=1.7e-07 $l=1.25e-07 $layer=LI1_cond $X=10.245 $Y=2.72
+ $X2=10.12 $Y2=2.72
r273 107 139 5.54545 $w=1.68e-07 $l=8.5e-08 $layer=LI1_cond $X=9.055 $Y=2.72
+ $X2=8.97 $Y2=2.72
r274 107 108 7.02821 $w=1.7e-07 $l=1.25e-07 $layer=LI1_cond $X=9.055 $Y=2.72
+ $X2=9.18 $Y2=2.72
r275 106 142 38.1658 $w=1.68e-07 $l=5.85e-07 $layer=LI1_cond $X=9.305 $Y=2.72
+ $X2=9.89 $Y2=2.72
r276 106 108 7.02821 $w=1.7e-07 $l=1.25e-07 $layer=LI1_cond $X=9.305 $Y=2.72
+ $X2=9.18 $Y2=2.72
r277 104 136 4.24064 $w=1.68e-07 $l=6.5e-08 $layer=LI1_cond $X=8.115 $Y=2.72
+ $X2=8.05 $Y2=2.72