* File: sky130_fd_sc_hdll__bufbuf_16.pex.spice
* Created: Wed Sep  2 08:24:44 2020
* Program "Calibre xRC"
* Version "v2018.4_34.26"
* Nominal Temperature: 27C
* Circuit Temperature: 27C
* 
.subckt PM_SKY130_FD_SC_HDLL__BUFBUF_16%A 1 3 4 6 7
r23 7 10 145.28 $w=1.7e-07 $l=1.7e-07 $layer=licon1_POLY $count=1 $X=0.275
+ $Y=1.16 $X2=0.275 $Y2=1.16
r24 4 10 40.1292 $w=4.26e-07 $l=2.36525e-07 $layer=POLY_cond $X=0.52 $Y=0.995
+ $X2=0.352 $Y2=1.16
r25 4 6 139.78 $w=1.5e-07 $l=4.35e-07 $layer=POLY_cond $X=0.52 $Y=0.995 $X2=0.52
+ $Y2=0.56
r26 1 10 44.7281 $w=4.26e-07 $l=3.13449e-07 $layer=POLY_cond $X=0.495 $Y=1.41
+ $X2=0.352 $Y2=1.16
r27 1 3 153.972 $w=1.8e-07 $l=5.75e-07 $layer=POLY_cond $X=0.495 $Y=1.41
+ $X2=0.495 $Y2=1.985
.ends

.subckt PM_SKY130_FD_SC_HDLL__BUFBUF_16%A_117_297# 1 2 9 11 13 16 18 20 21 23 26
+ 30 34 37 42 45 47 48 49 55
c97 42 0 1.39726e-19 $X=2.06 $Y=1.16
c98 26 0 1.25206e-19 $X=2.45 $Y=0.56
c99 21 0 1.26528e-19 $X=2.425 $Y=1.41
r100 55 56 3.65152 $w=3.3e-07 $l=2.5e-08 $layer=POLY_cond $X=2.425 $Y=1.217
+ $X2=2.45 $Y2=1.217
r101 52 53 3.65152 $w=3.3e-07 $l=2.5e-08 $layer=POLY_cond $X=1.93 $Y=1.217
+ $X2=1.955 $Y2=1.217
r102 51 52 64.997 $w=3.3e-07 $l=4.45e-07 $layer=POLY_cond $X=1.485 $Y=1.217
+ $X2=1.93 $Y2=1.217
r103 50 51 3.65152 $w=3.3e-07 $l=2.5e-08 $layer=POLY_cond $X=1.46 $Y=1.217
+ $X2=1.485 $Y2=1.217
r104 47 48 7.27811 $w=3.78e-07 $l=1.85e-07 $layer=LI1_cond $X=0.705 $Y=1.63
+ $X2=0.705 $Y2=1.445
r105 43 55 53.3121 $w=3.3e-07 $l=3.65e-07 $layer=POLY_cond $X=2.06 $Y=1.217
+ $X2=2.425 $Y2=1.217
r106 43 53 15.3364 $w=3.3e-07 $l=1.05e-07 $layer=POLY_cond $X=2.06 $Y=1.217
+ $X2=1.955 $Y2=1.217
r107 42 43 72.64 $w=1.7e-07 $l=3.4e-07 $layer=licon1_POLY $count=2 $X=2.06
+ $Y=1.16 $X2=2.06 $Y2=1.16
r108 40 49 1.92922 $w=2e-07 $l=1.18e-07 $layer=LI1_cond $X=0.895 $Y=1.175
+ $X2=0.777 $Y2=1.175
r109 40 42 64.6045 $w=1.98e-07 $l=1.165e-06 $layer=LI1_cond $X=0.895 $Y=1.175
+ $X2=2.06 $Y2=1.175
r110 38 49 4.50812 $w=2.35e-07 $l=1e-07 $layer=LI1_cond $X=0.777 $Y=1.275
+ $X2=0.777 $Y2=1.175
r111 38 48 8.33682 $w=2.33e-07 $l=1.7e-07 $layer=LI1_cond $X=0.777 $Y=1.275
+ $X2=0.777 $Y2=1.445
r112 37 49 4.50812 $w=2.35e-07 $l=1e-07 $layer=LI1_cond $X=0.777 $Y=1.075
+ $X2=0.777 $Y2=1.175
r113 37 45 8.33682 $w=2.33e-07 $l=1.7e-07 $layer=LI1_cond $X=0.777 $Y=1.075
+ $X2=0.777 $Y2=0.905
r114 32 47 0.151637 $w=3.78e-07 $l=5e-09 $layer=LI1_cond $X=0.705 $Y=1.635
+ $X2=0.705 $Y2=1.63
r115 32 34 20.471 $w=3.78e-07 $l=6.75e-07 $layer=LI1_cond $X=0.705 $Y=1.635
+ $X2=0.705 $Y2=2.31
r116 28 45 7.42975 $w=3.78e-07 $l=1.9e-07 $layer=LI1_cond $X=0.705 $Y=0.715
+ $X2=0.705 $Y2=0.905
r117 28 30 9.55315 $w=3.78e-07 $l=3.15e-07 $layer=LI1_cond $X=0.705 $Y=0.715
+ $X2=0.705 $Y2=0.4
r118 24 56 21.2229 $w=1.5e-07 $l=1.92e-07 $layer=POLY_cond $X=2.45 $Y=1.025
+ $X2=2.45 $Y2=1.217
r119 24 26 238.436 $w=1.5e-07 $l=4.65e-07 $layer=POLY_cond $X=2.45 $Y=1.025
+ $X2=2.45 $Y2=0.56
r120 21 55 16.9318 $w=1.8e-07 $l=1.93e-07 $layer=POLY_cond $X=2.425 $Y=1.41
+ $X2=2.425 $Y2=1.217
r121 21 23 153.972 $w=1.8e-07 $l=5.75e-07 $layer=POLY_cond $X=2.425 $Y=1.41
+ $X2=2.425 $Y2=1.985
r122 18 53 16.9318 $w=1.8e-07 $l=1.93e-07 $layer=POLY_cond $X=1.955 $Y=1.41
+ $X2=1.955 $Y2=1.217
r123 18 20 153.972 $w=1.8e-07 $l=5.75e-07 $layer=POLY_cond $X=1.955 $Y=1.41
+ $X2=1.955 $Y2=1.985
r124 14 52 21.2229 $w=1.5e-07 $l=1.92e-07 $layer=POLY_cond $X=1.93 $Y=1.025
+ $X2=1.93 $Y2=1.217
r125 14 16 238.436 $w=1.5e-07 $l=4.65e-07 $layer=POLY_cond $X=1.93 $Y=1.025
+ $X2=1.93 $Y2=0.56
r126 11 51 16.9318 $w=1.8e-07 $l=1.93e-07 $layer=POLY_cond $X=1.485 $Y=1.41
+ $X2=1.485 $Y2=1.217
r127 11 13 153.972 $w=1.8e-07 $l=5.75e-07 $layer=POLY_cond $X=1.485 $Y=1.41
+ $X2=1.485 $Y2=1.985
r128 7 50 21.2229 $w=1.5e-07 $l=1.92e-07 $layer=POLY_cond $X=1.46 $Y=1.025
+ $X2=1.46 $Y2=1.217
r129 7 9 238.436 $w=1.5e-07 $l=4.65e-07 $layer=POLY_cond $X=1.46 $Y=1.025
+ $X2=1.46 $Y2=0.56
r130 2 47 400 $w=1.7e-07 $l=2.05061e-07 $layer=licon1_PDIFF $count=1 $X=0.585
+ $Y=1.485 $X2=0.73 $Y2=1.63
r131 2 34 400 $w=1.7e-07 $l=8.94567e-07 $layer=licon1_PDIFF $count=1 $X=0.585
+ $Y=1.485 $X2=0.73 $Y2=2.31
r132 1 30 91 $w=1.7e-07 $l=2.22486e-07 $layer=licon1_NDIFF $count=2 $X=0.595
+ $Y=0.235 $X2=0.73 $Y2=0.4
.ends

.subckt PM_SKY130_FD_SC_HDLL__BUFBUF_16%A_225_47# 1 2 3 4 15 17 19 22 24 26 29
+ 31 33 36 38 40 43 45 47 48 50 53 57 61 65 66 67 68 71 75 79 81 84 86 92 95 96
+ 97 110
c214 110 0 1.39726e-19 $X=5.245 $Y=1.217
c215 92 0 1.34672e-19 $X=4.9 $Y=1.16
c216 53 0 1.25206e-19 $X=5.27 $Y=0.56
c217 48 0 1.26528e-19 $X=5.245 $Y=1.41
r218 110 111 3.71914 $w=3.24e-07 $l=2.5e-08 $layer=POLY_cond $X=5.245 $Y=1.217
+ $X2=5.27 $Y2=1.217
r219 107 108 3.71914 $w=3.24e-07 $l=2.5e-08 $layer=POLY_cond $X=4.75 $Y=1.217
+ $X2=4.775 $Y2=1.217
r220 106 107 66.2006 $w=3.24e-07 $l=4.45e-07 $layer=POLY_cond $X=4.305 $Y=1.217
+ $X2=4.75 $Y2=1.217
r221 105 106 3.71914 $w=3.24e-07 $l=2.5e-08 $layer=POLY_cond $X=4.28 $Y=1.217
+ $X2=4.305 $Y2=1.217
r222 104 105 66.2006 $w=3.24e-07 $l=4.45e-07 $layer=POLY_cond $X=3.835 $Y=1.217
+ $X2=4.28 $Y2=1.217
r223 103 104 3.71914 $w=3.24e-07 $l=2.5e-08 $layer=POLY_cond $X=3.81 $Y=1.217
+ $X2=3.835 $Y2=1.217
r224 102 103 66.2006 $w=3.24e-07 $l=4.45e-07 $layer=POLY_cond $X=3.365 $Y=1.217
+ $X2=3.81 $Y2=1.217
r225 101 102 3.71914 $w=3.24e-07 $l=2.5e-08 $layer=POLY_cond $X=3.34 $Y=1.217
+ $X2=3.365 $Y2=1.217
r226 98 99 3.71914 $w=3.24e-07 $l=2.5e-08 $layer=POLY_cond $X=2.87 $Y=1.217
+ $X2=2.895 $Y2=1.217
r227 93 110 51.3241 $w=3.24e-07 $l=3.45e-07 $layer=POLY_cond $X=4.9 $Y=1.217
+ $X2=5.245 $Y2=1.217
r228 93 108 18.5957 $w=3.24e-07 $l=1.25e-07 $layer=POLY_cond $X=4.9 $Y=1.217
+ $X2=4.775 $Y2=1.217
r229 92 93 48.4267 $w=1.7e-07 $l=5.1e-07 $layer=licon1_POLY $count=3 $X=4.9
+ $Y=1.16 $X2=4.9 $Y2=1.16
r230 90 101 50.5802 $w=3.24e-07 $l=3.4e-07 $layer=POLY_cond $X=3 $Y=1.217
+ $X2=3.34 $Y2=1.217
r231 90 99 15.6204 $w=3.24e-07 $l=1.05e-07 $layer=POLY_cond $X=3 $Y=1.217
+ $X2=2.895 $Y2=1.217
r232 89 92 105.364 $w=1.98e-07 $l=1.9e-06 $layer=LI1_cond $X=3 $Y=1.175 $X2=4.9
+ $Y2=1.175
r233 89 90 48.4267 $w=1.7e-07 $l=5.1e-07 $layer=licon1_POLY $count=3 $X=3
+ $Y=1.16 $X2=3 $Y2=1.16
r234 87 97 0.764409 $w=2e-07 $l=8.5e-08 $layer=LI1_cond $X=2.745 $Y=1.175
+ $X2=2.66 $Y2=1.175
r235 87 89 14.1409 $w=1.98e-07 $l=2.55e-07 $layer=LI1_cond $X=2.745 $Y=1.175
+ $X2=3 $Y2=1.175
r236 85 97 5.90115 $w=1.7e-07 $l=1e-07 $layer=LI1_cond $X=2.66 $Y=1.275 $X2=2.66
+ $Y2=1.175
r237 85 86 11.0909 $w=1.68e-07 $l=1.7e-07 $layer=LI1_cond $X=2.66 $Y=1.275
+ $X2=2.66 $Y2=1.445
r238 84 97 5.90115 $w=1.7e-07 $l=1e-07 $layer=LI1_cond $X=2.66 $Y=1.075 $X2=2.66
+ $Y2=1.175
r239 83 84 11.0909 $w=1.68e-07 $l=1.7e-07 $layer=LI1_cond $X=2.66 $Y=0.905
+ $X2=2.66 $Y2=1.075
r240 82 96 9.48355 $w=1.7e-07 $l=1.9e-07 $layer=LI1_cond $X=2.355 $Y=1.53
+ $X2=2.165 $Y2=1.53
r241 81 86 6.81649 $w=1.7e-07 $l=1.20208e-07 $layer=LI1_cond $X=2.575 $Y=1.53
+ $X2=2.66 $Y2=1.445
r242 81 82 14.3529 $w=1.68e-07 $l=2.2e-07 $layer=LI1_cond $X=2.575 $Y=1.53
+ $X2=2.355 $Y2=1.53
r243 80 95 9.48355 $w=1.7e-07 $l=1.9e-07 $layer=LI1_cond $X=2.355 $Y=0.82
+ $X2=2.165 $Y2=0.82
r244 79 83 6.81649 $w=1.7e-07 $l=1.20208e-07 $layer=LI1_cond $X=2.575 $Y=0.82
+ $X2=2.66 $Y2=0.905
r245 79 80 14.3529 $w=1.68e-07 $l=2.2e-07 $layer=LI1_cond $X=2.575 $Y=0.82
+ $X2=2.355 $Y2=0.82
r246 75 77 20.6227 $w=3.78e-07 $l=6.8e-07 $layer=LI1_cond $X=2.165 $Y=1.63
+ $X2=2.165 $Y2=2.31
r247 73 96 1.31983 $w=3.8e-07 $l=8.5e-08 $layer=LI1_cond $X=2.165 $Y=1.615
+ $X2=2.165 $Y2=1.53
r248 73 75 0.454912 $w=3.78e-07 $l=1.5e-08 $layer=LI1_cond $X=2.165 $Y=1.615
+ $X2=2.165 $Y2=1.63
r249 69 95 1.31983 $w=3.8e-07 $l=8.5e-08 $layer=LI1_cond $X=2.165 $Y=0.735
+ $X2=2.165 $Y2=0.82
r250 69 71 10.1597 $w=3.78e-07 $l=3.35e-07 $layer=LI1_cond $X=2.165 $Y=0.735
+ $X2=2.165 $Y2=0.4
r251 67 96 9.48355 $w=1.7e-07 $l=1.9e-07 $layer=LI1_cond $X=1.975 $Y=1.53
+ $X2=2.165 $Y2=1.53
r252 67 68 36.5348 $w=1.68e-07 $l=5.6e-07 $layer=LI1_cond $X=1.975 $Y=1.53
+ $X2=1.415 $Y2=1.53
r253 65 95 9.48355 $w=1.7e-07 $l=1.9e-07 $layer=LI1_cond $X=1.975 $Y=0.82
+ $X2=2.165 $Y2=0.82
r254 65 66 36.5348 $w=1.68e-07 $l=5.6e-07 $layer=LI1_cond $X=1.975 $Y=0.82
+ $X2=1.415 $Y2=0.82
r255 61 63 23.7473 $w=3.28e-07 $l=6.8e-07 $layer=LI1_cond $X=1.25 $Y=1.63
+ $X2=1.25 $Y2=2.31
r256 59 68 7.76618 $w=1.7e-07 $l=2.03101e-07 $layer=LI1_cond $X=1.25 $Y=1.615
+ $X2=1.415 $Y2=1.53
r257 59 61 0.523838 $w=3.28e-07 $l=1.5e-08 $layer=LI1_cond $X=1.25 $Y=1.615
+ $X2=1.25 $Y2=1.63
r258 55 66 7.76618 $w=1.7e-07 $l=2.03101e-07 $layer=LI1_cond $X=1.25 $Y=0.735
+ $X2=1.415 $Y2=0.82
r259 55 57 11.699 $w=3.28e-07 $l=3.35e-07 $layer=LI1_cond $X=1.25 $Y=0.735
+ $X2=1.25 $Y2=0.4
r260 51 111 20.7868 $w=1.5e-07 $l=1.92e-07 $layer=POLY_cond $X=5.27 $Y=1.025
+ $X2=5.27 $Y2=1.217
r261 51 53 238.436 $w=1.5e-07 $l=4.65e-07 $layer=POLY_cond $X=5.27 $Y=1.025
+ $X2=5.27 $Y2=0.56
r262 48 110 16.5046 $w=1.8e-07 $l=1.93e-07 $layer=POLY_cond $X=5.245 $Y=1.41
+ $X2=5.245 $Y2=1.217
r263 48 50 153.972 $w=1.8e-07 $l=5.75e-07 $layer=POLY_cond $X=5.245 $Y=1.41
+ $X2=5.245 $Y2=1.985
r264 45 108 16.5046 $w=1.8e-07 $l=1.93e-07 $layer=POLY_cond $X=4.775 $Y=1.41
+ $X2=4.775 $Y2=1.217
r265 45 47 153.972 $w=1.8e-07 $l=5.75e-07 $layer=POLY_cond $X=4.775 $Y=1.41
+ $X2=4.775 $Y2=1.985
r266 41 107 20.7868 $w=1.5e-07 $l=1.92e-07 $layer=POLY_cond $X=4.75 $Y=1.025
+ $X2=4.75 $Y2=1.217
r267 41 43 238.436 $w=1.5e-07 $l=4.65e-07 $layer=POLY_cond $X=4.75 $Y=1.025
+ $X2=4.75 $Y2=0.56
r268 38 106 16.5046 $w=1.8e-07 $l=1.93e-07 $layer=POLY_cond $X=4.305 $Y=1.41
+ $X2=4.305 $Y2=1.217
r269 38 40 153.972 $w=1.8e-07 $l=5.75e-07 $layer=POLY_cond $X=4.305 $Y=1.41
+ $X2=4.305 $Y2=1.985
r270 34 105 20.7868 $w=1.5e-07 $l=1.92e-07 $layer=POLY_cond $X=4.28 $Y=1.025
+ $X2=4.28 $Y2=1.217
r271 34 36 238.436 $w=1.5e-07 $l=4.65e-07 $layer=POLY_cond $X=4.28 $Y=1.025
+ $X2=4.28 $Y2=0.56
r272 31 104 16.5046 $w=1.8e-07 $l=1.93e-07 $layer=POLY_cond $X=3.835 $Y=1.41
+ $X2=3.835 $Y2=1.217
r273 31 33 153.972 $w=1.8e-07 $l=5.75e-07 $layer=POLY_cond $X=3.835 $Y=1.41
+ $X2=3.835 $Y2=1.985
r274 27 103 20.7868 $w=1.5e-07 $l=1.92e-07 $layer=POLY_cond $X=3.81 $Y=1.025
+ $X2=3.81 $Y2=1.217
r275 27 29 238.436 $w=1.5e-07 $l=4.65e-07 $layer=POLY_cond $X=3.81 $Y=1.025
+ $X2=3.81 $Y2=0.56
r276 24 102 16.5046 $w=1.8e-07 $l=1.93e-07 $layer=POLY_cond $X=3.365 $Y=1.41
+ $X2=3.365 $Y2=1.217
r277 24 26 153.972 $w=1.8e-07 $l=5.75e-07 $layer=POLY_cond $X=3.365 $Y=1.41
+ $X2=3.365 $Y2=1.985
r278 20 101 20.7868 $w=1.5e-07 $l=1.92e-07 $layer=POLY_cond $X=3.34 $Y=1.025
+ $X2=3.34 $Y2=1.217
r279 20 22 238.436 $w=1.5e-07 $l=4.65e-07 $layer=POLY_cond $X=3.34 $Y=1.025
+ $X2=3.34 $Y2=0.56
r280 17 99 16.5046 $w=1.8e-07 $l=1.93e-07 $layer=POLY_cond $X=2.895 $Y=1.41
+ $X2=2.895 $Y2=1.217
r281 17 19 153.972 $w=1.8e-07 $l=5.75e-07 $layer=POLY_cond $X=2.895 $Y=1.41
+ $X2=2.895 $Y2=1.985
r282 13 98 20.7868 $w=1.5e-07 $l=1.92e-07 $layer=POLY_cond $X=2.87 $Y=1.025
+ $X2=2.87 $Y2=1.217
r283 13 15 238.436 $w=1.5e-07 $l=4.65e-07 $layer=POLY_cond $X=2.87 $Y=1.025
+ $X2=2.87 $Y2=0.56
r284 4 77 400 $w=1.7e-07 $l=8.94567e-07 $layer=licon1_PDIFF $count=1 $X=2.045
+ $Y=1.485 $X2=2.19 $Y2=2.31
r285 4 75 400 $w=1.7e-07 $l=2.05061e-07 $layer=licon1_PDIFF $count=1 $X=2.045
+ $Y=1.485 $X2=2.19 $Y2=1.63
r286 3 63 400 $w=1.7e-07 $l=8.85297e-07 $layer=licon1_PDIFF $count=1 $X=1.125
+ $Y=1.485 $X2=1.25 $Y2=2.31
r287 3 61 400 $w=1.7e-07 $l=1.97864e-07 $layer=licon1_PDIFF $count=1 $X=1.125
+ $Y=1.485 $X2=1.25 $Y2=1.63
r288 2 71 91 $w=1.7e-07 $l=2.5446e-07 $layer=licon1_NDIFF $count=2 $X=2.005
+ $Y=0.235 $X2=2.19 $Y2=0.4
r289 1 57 91 $w=1.7e-07 $l=2.18746e-07 $layer=licon1_NDIFF $count=2 $X=1.125
+ $Y=0.235 $X2=1.25 $Y2=0.4
.ends

.subckt PM_SKY130_FD_SC_HDLL__BUFBUF_16%A_589_47# 1 2 3 4 5 6 21 23 25 28 30 32
+ 35 37 39 42 44 46 49 51 53 56 58 60 63 65 67 70 72 74 77 79 81 84 86 88 91 93
+ 95 98 100 102 105 107 109 112 114 116 119 121 123 124 126 129 133 137 141 142
+ 143 144 147 151 155 157 161 165 169 171 174 176 182 185 186 187 188 189 222
c462 222 0 1.34672e-19 $X=12.765 $Y=1.217
c463 144 0 1.26528e-19 $X=3.295 $Y=1.53
c464 142 0 1.25206e-19 $X=3.295 $Y=0.82
r465 222 223 3.76562 $w=3.2e-07 $l=2.5e-08 $layer=POLY_cond $X=12.765 $Y=1.217
+ $X2=12.79 $Y2=1.217
r466 221 222 70.7937 $w=3.2e-07 $l=4.7e-07 $layer=POLY_cond $X=12.295 $Y=1.217
+ $X2=12.765 $Y2=1.217
r467 218 219 67.0281 $w=3.2e-07 $l=4.45e-07 $layer=POLY_cond $X=11.825 $Y=1.217
+ $X2=12.27 $Y2=1.217
r468 217 218 3.76562 $w=3.2e-07 $l=2.5e-08 $layer=POLY_cond $X=11.8 $Y=1.217
+ $X2=11.825 $Y2=1.217
r469 216 217 67.0281 $w=3.2e-07 $l=4.45e-07 $layer=POLY_cond $X=11.355 $Y=1.217
+ $X2=11.8 $Y2=1.217
r470 215 216 3.76562 $w=3.2e-07 $l=2.5e-08 $layer=POLY_cond $X=11.33 $Y=1.217
+ $X2=11.355 $Y2=1.217
r471 214 215 67.0281 $w=3.2e-07 $l=4.45e-07 $layer=POLY_cond $X=10.885 $Y=1.217
+ $X2=11.33 $Y2=1.217
r472 213 214 3.76562 $w=3.2e-07 $l=2.5e-08 $layer=POLY_cond $X=10.86 $Y=1.217
+ $X2=10.885 $Y2=1.217
r473 212 213 67.0281 $w=3.2e-07 $l=4.45e-07 $layer=POLY_cond $X=10.415 $Y=1.217
+ $X2=10.86 $Y2=1.217
r474 211 212 3.76562 $w=3.2e-07 $l=2.5e-08 $layer=POLY_cond $X=10.39 $Y=1.217
+ $X2=10.415 $Y2=1.217
r475 210 211 67.0281 $w=3.2e-07 $l=4.45e-07 $layer=POLY_cond $X=9.945 $Y=1.217
+ $X2=10.39 $Y2=1.217
r476 209 210 3.76562 $w=3.2e-07 $l=2.5e-08 $layer=POLY_cond $X=9.92 $Y=1.217
+ $X2=9.945 $Y2=1.217
r477 208 209 67.0281 $w=3.2e-07 $l=4.45e-07 $layer=POLY_cond $X=9.475 $Y=1.217
+ $X2=9.92 $Y2=1.217
r478 207 208 3.76562 $w=3.2e-07 $l=2.5e-08 $layer=POLY_cond $X=9.45 $Y=1.217
+ $X2=9.475 $Y2=1.217
r479 206 207 67.0281 $w=3.2e-07 $l=4.45e-07 $layer=POLY_cond $X=9.005 $Y=1.217
+ $X2=9.45 $Y2=1.217
r480 205 206 3.76562 $w=3.2e-07 $l=2.5e-08 $layer=POLY_cond $X=8.98 $Y=1.217
+ $X2=9.005 $Y2=1.217
r481 204 205 67.0281 $w=3.2e-07 $l=4.45e-07 $layer=POLY_cond $X=8.535 $Y=1.217
+ $X2=8.98 $Y2=1.217
r482 203 204 3.76562 $w=3.2e-07 $l=2.5e-08 $layer=POLY_cond $X=8.51 $Y=1.217
+ $X2=8.535 $Y2=1.217
r483 202 203 67.0281 $w=3.2e-07 $l=4.45e-07 $layer=POLY_cond $X=8.065 $Y=1.217
+ $X2=8.51 $Y2=1.217
r484 201 202 3.76562 $w=3.2e-07 $l=2.5e-08 $layer=POLY_cond $X=8.04 $Y=1.217
+ $X2=8.065 $Y2=1.217
r485 200 201 67.0281 $w=3.2e-07 $l=4.45e-07 $layer=POLY_cond $X=7.595 $Y=1.217
+ $X2=8.04 $Y2=1.217
r486 199 200 3.76562 $w=3.2e-07 $l=2.5e-08 $layer=POLY_cond $X=7.57 $Y=1.217
+ $X2=7.595 $Y2=1.217
r487 198 199 67.0281 $w=3.2e-07 $l=4.45e-07 $layer=POLY_cond $X=7.125 $Y=1.217
+ $X2=7.57 $Y2=1.217
r488 197 198 3.76562 $w=3.2e-07 $l=2.5e-08 $layer=POLY_cond $X=7.1 $Y=1.217
+ $X2=7.125 $Y2=1.217
r489 196 197 67.0281 $w=3.2e-07 $l=4.45e-07 $layer=POLY_cond $X=6.655 $Y=1.217
+ $X2=7.1 $Y2=1.217
r490 195 196 3.76562 $w=3.2e-07 $l=2.5e-08 $layer=POLY_cond $X=6.63 $Y=1.217
+ $X2=6.655 $Y2=1.217
r491 194 195 67.0281 $w=3.2e-07 $l=4.45e-07 $layer=POLY_cond $X=6.185 $Y=1.217
+ $X2=6.63 $Y2=1.217
r492 193 194 3.76562 $w=3.2e-07 $l=2.5e-08 $layer=POLY_cond $X=6.16 $Y=1.217
+ $X2=6.185 $Y2=1.217
r493 190 191 3.76562 $w=3.2e-07 $l=2.5e-08 $layer=POLY_cond $X=5.69 $Y=1.217
+ $X2=5.715 $Y2=1.217
r494 183 221 2.25938 $w=3.2e-07 $l=1.5e-08 $layer=POLY_cond $X=12.28 $Y=1.217
+ $X2=12.295 $Y2=1.217
r495 183 219 1.50625 $w=3.2e-07 $l=1e-08 $layer=POLY_cond $X=12.28 $Y=1.217
+ $X2=12.27 $Y2=1.217
r496 182 183 16.1422 $w=1.7e-07 $l=1.53e-06 $layer=licon1_POLY $count=9 $X=12.28
+ $Y=1.16 $X2=12.28 $Y2=1.16
r497 180 193 54.225 $w=3.2e-07 $l=3.6e-07 $layer=POLY_cond $X=5.8 $Y=1.217
+ $X2=6.16 $Y2=1.217
r498 180 191 12.8031 $w=3.2e-07 $l=8.5e-08 $layer=POLY_cond $X=5.8 $Y=1.217
+ $X2=5.715 $Y2=1.217
r499 179 182 359.345 $w=1.98e-07 $l=6.48e-06 $layer=LI1_cond $X=5.8 $Y=1.175
+ $X2=12.28 $Y2=1.175
r500 179 180 16.1422 $w=1.7e-07 $l=1.53e-06 $layer=licon1_POLY $count=9 $X=5.8
+ $Y=1.16 $X2=5.8 $Y2=1.16
r501 177 189 0.866423 $w=2e-07 $l=8.8e-08 $layer=LI1_cond $X=5.565 $Y=1.175
+ $X2=5.477 $Y2=1.175
r502 177 179 13.0318 $w=1.98e-07 $l=2.35e-07 $layer=LI1_cond $X=5.565 $Y=1.175
+ $X2=5.8 $Y2=1.175
r503 175 189 5.7647 $w=1.75e-07 $l=1e-07 $layer=LI1_cond $X=5.477 $Y=1.275
+ $X2=5.477 $Y2=1.175
r504 175 176 10.774 $w=1.73e-07 $l=1.7e-07 $layer=LI1_cond $X=5.477 $Y=1.275
+ $X2=5.477 $Y2=1.445
r505 174 189 5.7647 $w=1.75e-07 $l=1e-07 $layer=LI1_cond $X=5.477 $Y=1.075
+ $X2=5.477 $Y2=1.175
r506 173 174 10.774 $w=1.73e-07 $l=1.7e-07 $layer=LI1_cond $X=5.477 $Y=0.905
+ $X2=5.477 $Y2=1.075
r507 172 188 9.48355 $w=1.7e-07 $l=1.9e-07 $layer=LI1_cond $X=5.175 $Y=1.53
+ $X2=4.985 $Y2=1.53
r508 171 176 6.81835 $w=1.7e-07 $l=1.22327e-07 $layer=LI1_cond $X=5.39 $Y=1.53
+ $X2=5.477 $Y2=1.445
r509 171 172 14.0267 $w=1.68e-07 $l=2.15e-07 $layer=LI1_cond $X=5.39 $Y=1.53
+ $X2=5.175 $Y2=1.53
r510 170 187 9.48355 $w=1.7e-07 $l=1.9e-07 $layer=LI1_cond $X=5.175 $Y=0.82
+ $X2=4.985 $Y2=0.82
r511 169 173 6.81835 $w=1.7e-07 $l=1.22327e-07 $layer=LI1_cond $X=5.39 $Y=0.82
+ $X2=5.477 $Y2=0.905
r512 169 170 14.0267 $w=1.68e-07 $l=2.15e-07 $layer=LI1_cond $X=5.39 $Y=0.82
+ $X2=5.175 $Y2=0.82
r513 165 167 20.6227 $w=3.78e-07 $l=6.8e-07 $layer=LI1_cond $X=4.985 $Y=1.63
+ $X2=4.985 $Y2=2.31
r514 163 188 1.31983 $w=3.8e-07 $l=8.5e-08 $layer=LI1_cond $X=4.985 $Y=1.615
+ $X2=4.985 $Y2=1.53
r515 163 165 0.454912 $w=3.78e-07 $l=1.5e-08 $layer=LI1_cond $X=4.985 $Y=1.615
+ $X2=4.985 $Y2=1.63
r516 159 187 1.31983 $w=3.8e-07 $l=8.5e-08 $layer=LI1_cond $X=4.985 $Y=0.735
+ $X2=4.985 $Y2=0.82
r517 159 161 10.1597 $w=3.78e-07 $l=3.35e-07 $layer=LI1_cond $X=4.985 $Y=0.735
+ $X2=4.985 $Y2=0.4
r518 158 186 9.48355 $w=1.7e-07 $l=1.9e-07 $layer=LI1_cond $X=4.235 $Y=1.53
+ $X2=4.045 $Y2=1.53
r519 157 188 9.48355 $w=1.7e-07 $l=1.9e-07 $layer=LI1_cond $X=4.795 $Y=1.53
+ $X2=4.985 $Y2=1.53
r520 157 158 36.5348 $w=1.68e-07 $l=5.6e-07 $layer=LI1_cond $X=4.795 $Y=1.53
+ $X2=4.235 $Y2=1.53
r521 156 185 9.48355 $w=1.7e-07 $l=1.9e-07 $layer=LI1_cond $X=4.235 $Y=0.82
+ $X2=4.045 $Y2=0.82
r522 155 187 9.48355 $w=1.7e-07 $l=1.9e-07 $layer=LI1_cond $X=4.795 $Y=0.82
+ $X2=4.985 $Y2=0.82
r523 155 156 36.5348 $w=1.68e-07 $l=5.6e-07 $layer=LI1_cond $X=4.795 $Y=0.82
+ $X2=4.235 $Y2=0.82
r524 151 153 20.6227 $w=3.78e-07 $l=6.8e-07 $layer=LI1_cond $X=4.045 $Y=1.63
+ $X2=4.045 $Y2=2.31
r525 149 186 1.31983 $w=3.8e-07 $l=8.5e-08 $layer=LI1_cond $X=4.045 $Y=1.615
+ $X2=4.045 $Y2=1.53
r526 149 151 0.454912 $w=3.78e-07 $l=1.5e-08 $layer=LI1_cond $X=4.045 $Y=1.615
+ $X2=4.045 $Y2=1.63
r527 145 185 1.31983 $w=3.8e-07 $l=8.5e-08 $layer=LI1_cond $X=4.045 $Y=0.735
+ $X2=4.045 $Y2=0.82
r528 145 147 10.1597 $w=3.78e-07 $l=3.35e-07 $layer=LI1_cond $X=4.045 $Y=0.735
+ $X2=4.045 $Y2=0.4
r529 143 186 9.48355 $w=1.7e-07 $l=1.9e-07 $layer=LI1_cond $X=3.855 $Y=1.53
+ $X2=4.045 $Y2=1.53
r530 143 144 36.5348 $w=1.68e-07 $l=5.6e-07 $layer=LI1_cond $X=3.855 $Y=1.53
+ $X2=3.295 $Y2=1.53
r531 141 185 9.48355 $w=1.7e-07 $l=1.9e-07 $layer=LI1_cond $X=3.855 $Y=0.82
+ $X2=4.045 $Y2=0.82
r532 141 142 36.5348 $w=1.68e-07 $l=5.6e-07 $layer=LI1_cond $X=3.855 $Y=0.82
+ $X2=3.295 $Y2=0.82
r533 137 139 20.6227 $w=3.78e-07 $l=6.8e-07 $layer=LI1_cond $X=3.105 $Y=1.63
+ $X2=3.105 $Y2=2.31
r534 135 144 8.19669 $w=1.7e-07 $l=2.28583e-07 $layer=LI1_cond $X=3.105 $Y=1.615
+ $X2=3.295 $Y2=1.53
r535 135 137 0.454912 $w=3.78e-07 $l=1.5e-08 $layer=LI1_cond $X=3.105 $Y=1.615
+ $X2=3.105 $Y2=1.63
r536 131 142 8.19669 $w=1.7e-07 $l=2.28583e-07 $layer=LI1_cond $X=3.105 $Y=0.735
+ $X2=3.295 $Y2=0.82
r537 131 133 10.1597 $w=3.78e-07 $l=3.35e-07 $layer=LI1_cond $X=3.105 $Y=0.735
+ $X2=3.105 $Y2=0.4
r538 127 223 20.4921 $w=1.5e-07 $l=1.92e-07 $layer=POLY_cond $X=12.79 $Y=1.025
+ $X2=12.79 $Y2=1.217
r539 127 129 238.436 $w=1.5e-07 $l=4.65e-07 $layer=POLY_cond $X=12.79 $Y=1.025
+ $X2=12.79 $Y2=0.56
r540 124 222 16.2157 $w=1.8e-07 $l=1.93e-07 $layer=POLY_cond $X=12.765 $Y=1.41
+ $X2=12.765 $Y2=1.217
r541 124 126 153.972 $w=1.8e-07 $l=5.75e-07 $layer=POLY_cond $X=12.765 $Y=1.41
+ $X2=12.765 $Y2=1.985
r542 121 221 16.2157 $w=1.8e-07 $l=1.93e-07 $layer=POLY_cond $X=12.295 $Y=1.41
+ $X2=12.295 $Y2=1.217
r543 121 123 153.972 $w=1.8e-07 $l=5.75e-07 $layer=POLY_cond $X=12.295 $Y=1.41
+ $X2=12.295 $Y2=1.985
r544 117 219 20.4921 $w=1.5e-07 $l=1.92e-07 $layer=POLY_cond $X=12.27 $Y=1.025
+ $X2=12.27 $Y2=1.217
r545 117 119 238.436 $w=1.5e-07 $l=4.65e-07 $layer=POLY_cond $X=12.27 $Y=1.025
+ $X2=12.27 $Y2=0.56
r546 114 218 16.2157 $w=1.8e-07 $l=1.93e-07 $layer=POLY_cond $X=11.825 $Y=1.41
+ $X2=11.825 $Y2=1.217
r547 114 116 153.972 $w=1.8e-07 $l=5.75e-07 $layer=POLY_cond $X=11.825 $Y=1.41
+ $X2=11.825 $Y2=1.985
r548 110 217 20.4921 $w=1.5e-07 $l=1.92e-07 $layer=POLY_cond $X=11.8 $Y=1.025
+ $X2=11.8 $Y2=1.217
r549 110 112 238.436 $w=1.5e-07 $l=4.65e-07 $layer=POLY_cond $X=11.8 $Y=1.025
+ $X2=11.8 $Y2=0.56
r550 107 216 16.2157 $w=1.8e-07 $l=1.93e-07 $layer=POLY_cond $X=11.355 $Y=1.41
+ $X2=11.355 $Y2=1.217
r551 107 109 153.972 $w=1.8e-07 $l=5.75e-07 $layer=POLY_cond $X=11.355 $Y=1.41
+ $X2=11.355 $Y2=1.985
r552 103 215 20.4921 $w=1.5e-07 $l=1.92e-07 $layer=POLY_cond $X=11.33 $Y=1.025
+ $X2=11.33 $Y2=1.217
r553 103 105 238.436 $w=1.5e-07 $l=4.65e-07 $layer=POLY_cond $X=11.33 $Y=1.025
+ $X2=11.33 $Y2=0.56
r554 100 214 16.2157 $w=1.8e-07 $l=1.93e-07 $layer=POLY_cond $X=10.885 $Y=1.41
+ $X2=10.885 $Y2=1.217
r555 100 102 153.972 $w=1.8e-07 $l=5.75e-07 $layer=POLY_cond $X=10.885 $Y=1.41
+ $X2=10.885 $Y2=1.985
r556 96 213 20.4921 $w=1.5e-07 $l=1.92e-07 $layer=POLY_cond $X=10.86 $Y=1.025
+ $X2=10.86 $Y2=1.217
r557 96 98 238.436 $w=1.5e-07 $l=4.65e-07 $layer=POLY_cond $X=10.86 $Y=1.025
+ $X2=10.86 $Y2=0.56
r558 93 212 16.2157 $w=1.8e-07 $l=1.93e-07 $layer=POLY_cond $X=10.415 $Y=1.41
+ $X2=10.415 $Y2=1.217
r559 93 95 153.972 $w=1.8e-07 $l=5.75e-07 $layer=POLY_cond $X=10.415 $Y=1.41
+ $X2=10.415 $Y2=1.985
r560 89 211 20.4921 $w=1.5e-07 $l=1.92e-07 $layer=POLY_cond $X=10.39 $Y=1.025
+ $X2=10.39 $Y2=1.217
r561 89 91 238.436 $w=1.5e-07 $l=4.65e-07 $layer=POLY_cond $X=10.39 $Y=1.025
+ $X2=10.39 $Y2=0.56
r562 86 210 16.2157 $w=1.8e-07 $l=1.93e-07 $layer=POLY_cond $X=9.945 $Y=1.41
+ $X2=9.945 $Y2=1.217
r563 86 88 153.972 $w=1.8e-07 $l=5.75e-07 $layer=POLY_cond $X=9.945 $Y=1.41
+ $X2=9.945 $Y2=1.985
r564 82 209 20.4921 $w=1.5e-07 $l=1.92e-07 $layer=POLY_cond $X=9.92 $Y=1.025
+ $X2=9.92 $Y2=1.217
r565 82 84 238.436 $w=1.5e-07 $l=4.65e-07 $layer=POLY_cond $X=9.92 $Y=1.025
+ $X2=9.92 $Y2=0.56
r566 79 208 16.2157 $w=1.8e-07 $l=1.93e-07 $layer=POLY_cond $X=9.475 $Y=1.41
+ $X2=9.475 $Y2=1.217
r567 79 81 153.972 $w=1.8e-07 $l=5.75e-07 $layer=POLY_cond $X=9.475 $Y=1.41
+ $X2=9.475 $Y2=1.985
r568 75 207 20.4921 $w=1.5e-07 $l=1.92e-07 $layer=POLY_cond $X=9.45 $Y=1.025
+ $X2=9.45 $Y2=1.217
r569 75 77 238.436 $w=1.5e-07 $l=4.65e-07 $layer=POLY_cond $X=9.45 $Y=1.025
+ $X2=9.45 $Y2=0.56
r570 72 206 16.2157 $w=1.8e-07 $l=1.93e-07 $layer=POLY_cond $X=9.005 $Y=1.41
+ $X2=9.005 $Y2=1.217
r571 72 74 153.972 $w=1.8e-07 $l=5.75e-07 $layer=POLY_cond $X=9.005 $Y=1.41
+ $X2=9.005 $Y2=1.985
r572 68 205 20.4921 $w=1.5e-07 $l=1.92e-07 $layer=POLY_cond $X=8.98 $Y=1.025
+ $X2=8.98 $Y2=1.217
r573 68 70 238.436 $w=1.5e-07 $l=4.65e-07 $layer=POLY_cond $X=8.98 $Y=1.025
+ $X2=8.98 $Y2=0.56
r574 65 204 16.2157 $w=1.8e-07 $l=1.93e-07 $layer=POLY_cond $X=8.535 $Y=1.41
+ $X2=8.535 $Y2=1.217
r575 65 67 153.972 $w=1.8e-07 $l=5.75e-07 $layer=POLY_cond $X=8.535 $Y=1.41
+ $X2=8.535 $Y2=1.985
r576 61 203 20.4921 $w=1.5e-07 $l=1.92e-07 $layer=POLY_cond $X=8.51 $Y=1.025
+ $X2=8.51 $Y2=1.217
r577 61 63 238.436 $w=1.5e-07 $l=4.65e-07 $layer=POLY_cond $X=8.51 $Y=1.025
+ $X2=8.51 $Y2=0.56
r578 58 202 16.2157 $w=1.8e-07 $l=1.93e-07 $layer=POLY_cond $X=8.065 $Y=1.41
+ $X2=8.065 $Y2=1.217
r579 58 60 153.972 $w=1.8e-07 $l=5.75e-07 $layer=POLY_cond $X=8.065 $Y=1.41
+ $X2=8.065 $Y2=1.985
r580 54 201 20.4921 $w=1.5e-07 $l=1.92e-07 $layer=POLY_cond $X=8.04 $Y=1.025
+ $X2=8.04 $Y2=1.217
r581 54 56 238.436 $w=1.5e-07 $l=4.65e-07 $layer=POLY_cond $X=8.04 $Y=1.025
+ $X2=8.04 $Y2=0.56
r582 51 200 16.2157 $w=1.8e-07 $l=1.93e-07 $layer=POLY_cond $X=7.595 $Y=1.41
+ $X2=7.595 $Y2=1.217
r583 51 53 153.972 $w=1.8e-07 $l=5.75e-07 $layer=POLY_cond $X=7.595 $Y=1.41
+ $X2=7.595 $Y2=1.985
r584 47 199 20.4921 $w=1.5e-07 $l=1.92e-07 $layer=POLY_cond $X=7.57 $Y=1.025
+ $X2=7.57 $Y2=1.217
r585 47 49 238.436 $w=1.5e-07 $l=4.65e-07 $layer=POLY_cond $X=7.57 $Y=1.025
+ $X2=7.57 $Y2=0.56
r586 44 198 16.2157 $w=1.8e-07 $l=1.93e-07 $layer=POLY_cond $X=7.125 $Y=1.41
+ $X2=7.125 $Y2=1.217
r587 44 46 153.972 $w=1.8e-07 $l=5.75e-07 $layer=POLY_cond $X=7.125 $Y=1.41
+ $X2=7.125 $Y2=1.985
r588 40 197 20.4921 $w=1.5e-07 $l=1.92e-07 $layer=POLY_cond $X=7.1 $Y=1.025
+ $X2=7.1 $Y2=1.217
r589 40 42 238.436 $w=1.5e-07 $l=4.65e-07 $layer=POLY_cond $X=7.1 $Y=1.025
+ $X2=7.1 $Y2=0.56
r590 37 196 16.2157 $w=1.8e-07 $l=1.93e-07 $layer=POLY_cond $X=6.655 $Y=1.41
+ $X2=6.655 $Y2=1.217
r591 37 39 153.972 $w=1.8e-07 $l=5.75e-07 $layer=POLY_cond $X=6.655 $Y=1.41
+ $X2=6.655 $Y2=1.985
r592 33 195 20.4921 $w=1.5e-07 $l=1.92e-07 $layer=POLY_cond $X=6.63 $Y=1.025
+ $X2=6.63 $Y2=1.217
r593 33 35 238.436 $w=1.5e-07 $l=4.65e-07 $layer=POLY_cond $X=6.63 $Y=1.025
+ $X2=6.63 $Y2=0.56
r594 30 194 16.2157 $w=1.8e-07 $l=1.93e-07 $layer=POLY_cond $X=6.185 $Y=1.41
+ $X2=6.185 $Y2=1.217
r595 30 32 153.972 $w=1.8e-07 $l=5.75e-07 $layer=POLY_cond $X=6.185 $Y=1.41
+ $X2=6.185 $Y2=1.985
r596 26 193 20.4921 $w=1.5e-07 $l=1.92e-07 $layer=POLY_cond $X=6.16 $Y=1.025
+ $X2=6.16 $Y2=1.217
r597 26 28 238.436 $w=1.5e-07 $l=4.65e-07 $layer=POLY_cond $X=6.16 $Y=1.025
+ $X2=6.16 $Y2=0.56
r598 23 191 16.2157 $w=1.8e-07 $l=1.93e-07 $layer=POLY_cond $X=5.715 $Y=1.41
+ $X2=5.715 $Y2=1.217
r599 23 25 153.972 $w=1.8e-07 $l=5.75e-07 $layer=POLY_cond $X=5.715 $Y=1.41
+ $X2=5.715 $Y2=1.985
r600 19 190 20.4921 $w=1.5e-07 $l=1.92e-07 $layer=POLY_cond $X=5.69 $Y=1.025
+ $X2=5.69 $Y2=1.217
r601 19 21 238.436 $w=1.5e-07 $l=4.65e-07 $layer=POLY_cond $X=5.69 $Y=1.025
+ $X2=5.69 $Y2=0.56
r602 6 167 400 $w=1.7e-07 $l=8.94567e-07 $layer=licon1_PDIFF $count=1 $X=4.865
+ $Y=1.485 $X2=5.01 $Y2=2.31
r603 6 165 400 $w=1.7e-07 $l=2.05061e-07 $layer=licon1_PDIFF $count=1 $X=4.865
+ $Y=1.485 $X2=5.01 $Y2=1.63
r604 5 153 400 $w=1.7e-07 $l=8.94567e-07 $layer=licon1_PDIFF $count=1 $X=3.925
+ $Y=1.485 $X2=4.07 $Y2=2.31
r605 5 151 400 $w=1.7e-07 $l=2.05061e-07 $layer=licon1_PDIFF $count=1 $X=3.925
+ $Y=1.485 $X2=4.07 $Y2=1.63
r606 4 139 400 $w=1.7e-07 $l=8.94567e-07 $layer=licon1_PDIFF $count=1 $X=2.985
+ $Y=1.485 $X2=3.13 $Y2=2.31
r607 4 137 400 $w=1.7e-07 $l=2.05061e-07 $layer=licon1_PDIFF $count=1 $X=2.985
+ $Y=1.485 $X2=3.13 $Y2=1.63
r608 3 161 91 $w=1.7e-07 $l=2.5446e-07 $layer=licon1_NDIFF $count=2 $X=4.825
+ $Y=0.235 $X2=5.01 $Y2=0.4
r609 2 147 91 $w=1.7e-07 $l=2.5446e-07 $layer=licon1_NDIFF $count=2 $X=3.885
+ $Y=0.235 $X2=4.07 $Y2=0.4
r610 1 133 91 $w=1.7e-07 $l=2.5446e-07 $layer=licon1_NDIFF $count=2 $X=2.945
+ $Y=0.235 $X2=3.13 $Y2=0.4
.ends

.subckt PM_SKY130_FD_SC_HDLL__BUFBUF_16%VPWR 1 2 3 4 5 6 7 8 9 10 11 12 13 14 43
+ 45 51 55 59 63 67 71 75 79 83 87 91 95 97 99 102 103 105 106 108 109 111 112
+ 114 115 117 118 120 121 123 124 126 127 129 130 132 133 135 136 137 179 188
+ 191
r217 187 188 9.3 $w=1.7e-07 $l=1.7e-07 $layer=mcon $count=1 $X=13.11 $Y=2.72
+ $X2=13.11 $Y2=2.72
r218 184 191 9.3 $w=1.7e-07 $l=1.7e-07 $layer=mcon $count=1 $X=0.23 $Y=2.72
+ $X2=0.23 $Y2=2.72
r219 182 188 0.130889 $w=4.8e-07 $l=4.6e-07 $layer=MET1_cond $X=12.65 $Y=2.72
+ $X2=13.11 $Y2=2.72
r220 181 182 4.65 $w=1.7e-07 $l=3.4e-07 $layer=mcon $count=2 $X=12.65 $Y=2.72
+ $X2=12.65 $Y2=2.72
r221 179 187 3.40825 $w=1.7e-07 $l=2.12e-07 $layer=LI1_cond $X=12.915 $Y=2.72
+ $X2=13.127 $Y2=2.72
r222 179 181 17.2888 $w=1.68e-07 $l=2.65e-07 $layer=LI1_cond $X=12.915 $Y=2.72
+ $X2=12.65 $Y2=2.72
r223 178 182 0.261778 $w=4.8e-07 $l=9.2e-07 $layer=MET1_cond $X=11.73 $Y=2.72
+ $X2=12.65 $Y2=2.72
r224 177 178 4.65 $w=1.7e-07 $l=3.4e-07 $layer=mcon $count=2 $X=11.73 $Y=2.72
+ $X2=11.73 $Y2=2.72
r225 175 178 0.261778 $w=4.8e-07 $l=9.2e-07 $layer=MET1_cond $X=10.81 $Y=2.72
+ $X2=11.73 $Y2=2.72
r226 174 175 4.65 $w=1.7e-07 $l=3.4e-07 $layer=mcon $count=2 $X=10.81 $Y=2.72
+ $X2=10.81 $Y2=2.72
r227 172 175 0.261778 $w=4.8e-07 $l=9.2e-07 $layer=MET1_cond $X=9.89 $Y=2.72
+ $X2=10.81 $Y2=2.72
r228 171 172 4.65 $w=1.7e-07 $l=3.4e-07 $layer=mcon $count=2 $X=9.89 $Y=2.72
+ $X2=9.89 $Y2=2.72
r229 169 172 0.261778 $w=4.8e-07 $l=9.2e-07 $layer=MET1_cond $X=8.97 $Y=2.72
+ $X2=9.89 $Y2=2.72
r230 168 169 4.65 $w=1.7e-07 $l=3.4e-07 $layer=mcon $count=2 $X=8.97 $Y=2.72
+ $X2=8.97 $Y2=2.72
r231 166 169 0.261778 $w=4.8e-07 $l=9.2e-07 $layer=MET1_cond $X=8.05 $Y=2.72
+ $X2=8.97 $Y2=2.72
r232 165 166 4.65 $w=1.7e-07 $l=3.4e-07 $layer=mcon $count=2 $X=8.05 $Y=2.72
+ $X2=8.05 $Y2=2.72
r233 163 166 0.261778 $w=4.8e-07 $l=9.2e-07 $layer=MET1_cond $X=7.13 $Y=2.72
+ $X2=8.05 $Y2=2.72
r234 162 163 4.65 $w=1.7e-07 $l=3.4e-07 $layer=mcon $count=2 $X=7.13 $Y=2.72
+ $X2=7.13 $Y2=2.72
r235 160 163 0.261778 $w=4.8e-07 $l=9.2e-07 $layer=MET1_cond $X=6.21 $Y=2.72
+ $X2=7.13 $Y2=2.72
r236 159 160 4.65 $w=1.7e-07 $l=3.4e-07 $layer=mcon $count=2 $X=6.21 $Y=2.72
+ $X2=6.21 $Y2=2.72
r237 157 160 0.261778 $w=4.8e-07 $l=9.2e-07 $layer=MET1_cond $X=5.29 $Y=2.72
+ $X2=6.21 $Y2=2.72
r238 156 157 4.65 $w=1.7e-07 $l=3.4e-07 $layer=mcon $count=2 $X=5.29 $Y=2.72
+ $X2=5.29 $Y2=2.72
r239 154 157 0.261778 $w=4.8e-07 $l=9.2e-07 $layer=MET1_cond $X=4.37 $Y=2.72
+ $X2=5.29 $Y2=2.72
r240 153 154 4.65 $w=1.7e-07 $l=3.4e-07 $layer=mcon $count=2 $X=4.37 $Y=2.72
+ $X2=4.37 $Y2=2.72
r241 151 154 0.261778 $w=4.8e-07 $l=9.2e-07 $layer=MET1_cond $X=3.45 $Y=2.72
+ $X2=4.37 $Y2=2.72
r242 150 151 4.65 $w=1.7e-07 $l=3.4e-07 $layer=mcon $count=2 $X=3.45 $Y=2.72
+ $X2=3.45 $Y2=2.72
r243 148 151 0.261778 $w=4.8e-07 $l=9.2e-07 $layer=MET1_cond $X=2.53 $Y=2.72
+ $X2=3.45 $Y2=2.72
r244 147 148 4.65 $w=1.7e-07 $l=3.4e-07 $layer=mcon $count=2 $X=2.53 $Y=2.72
+ $X2=2.53 $Y2=2.72
r245 145 148 0.261778 $w=4.8e-07 $l=9.2e-07 $layer=MET1_cond $X=1.61 $Y=2.72
+ $X2=2.53 $Y2=2.72
r246 144 145 6.2 $w=1.7e-07 $l=2.55e-07 $layer=mcon $count=1 $X=1.61 $Y=2.72
+ $X2=1.61 $Y2=2.72
r247 142 145 0.261778 $w=4.8e-07 $l=9.2e-07 $layer=MET1_cond $X=0.69 $Y=2.72
+ $X2=1.61 $Y2=2.72
r248 141 144 60.0214 $w=1.68e-07 $l=9.2e-07 $layer=LI1_cond $X=0.69 $Y=2.72
+ $X2=1.61 $Y2=2.72