* File: sky130_fd_sc_hdll__mux2_16.pex.spice
* Created: Wed Sep  2 08:34:16 2020
* Program "Calibre xRC"
* Version "v2018.4_34.26"
* Nominal Temperature: 27C
* Circuit Temperature: 27C
* 
.subckt PM_SKY130_FD_SC_HDLL__MUX2_16%A1 1 3 4 6 7 9 10 12 13 15 16 18 19 21 22
+ 24 25 38 39
r88 39 40 3.23925 $w=3.72e-07 $l=2.5e-08 $layer=POLY_cond $X=1.88 $Y=1.202
+ $X2=1.905 $Y2=1.202
r89 37 39 16.8441 $w=3.72e-07 $l=1.3e-07 $layer=POLY_cond $X=1.75 $Y=1.202
+ $X2=1.88 $Y2=1.202
r90 37 38 72.64 $w=1.7e-07 $l=3.4e-07 $layer=licon1_POLY $count=2 $X=1.75
+ $Y=1.16 $X2=1.75 $Y2=1.16
r91 35 37 37.5753 $w=3.72e-07 $l=2.9e-07 $layer=POLY_cond $X=1.46 $Y=1.202
+ $X2=1.75 $Y2=1.202
r92 34 35 3.23925 $w=3.72e-07 $l=2.5e-08 $layer=POLY_cond $X=1.435 $Y=1.202
+ $X2=1.46 $Y2=1.202
r93 33 34 60.8979 $w=3.72e-07 $l=4.7e-07 $layer=POLY_cond $X=0.965 $Y=1.202
+ $X2=1.435 $Y2=1.202
r94 32 33 3.23925 $w=3.72e-07 $l=2.5e-08 $layer=POLY_cond $X=0.94 $Y=1.202
+ $X2=0.965 $Y2=1.202
r95 30 32 27.2097 $w=3.72e-07 $l=2.1e-07 $layer=POLY_cond $X=0.73 $Y=1.202
+ $X2=0.94 $Y2=1.202
r96 30 31 72.64 $w=1.7e-07 $l=3.4e-07 $layer=licon1_POLY $count=2 $X=0.73
+ $Y=1.16 $X2=0.73 $Y2=1.16
r97 28 30 27.2097 $w=3.72e-07 $l=2.1e-07 $layer=POLY_cond $X=0.52 $Y=1.202
+ $X2=0.73 $Y2=1.202
r98 27 28 3.23925 $w=3.72e-07 $l=2.5e-08 $layer=POLY_cond $X=0.495 $Y=1.202
+ $X2=0.52 $Y2=1.202
r99 25 38 27.6586 $w=2.48e-07 $l=6e-07 $layer=LI1_cond $X=1.15 $Y=1.2 $X2=1.75
+ $Y2=1.2
r100 25 31 19.361 $w=2.48e-07 $l=4.2e-07 $layer=LI1_cond $X=1.15 $Y=1.2 $X2=0.73
+ $Y2=1.2
r101 22 40 19.7411 $w=1.8e-07 $l=2.08e-07 $layer=POLY_cond $X=1.905 $Y=1.41
+ $X2=1.905 $Y2=1.202
r102 22 24 153.972 $w=1.8e-07 $l=5.75e-07 $layer=POLY_cond $X=1.905 $Y=1.41
+ $X2=1.905 $Y2=1.985
r103 19 39 24.0971 $w=1.5e-07 $l=2.07e-07 $layer=POLY_cond $X=1.88 $Y=0.995
+ $X2=1.88 $Y2=1.202
r104 19 21 139.78 $w=1.5e-07 $l=4.35e-07 $layer=POLY_cond $X=1.88 $Y=0.995
+ $X2=1.88 $Y2=0.56
r105 16 35 24.0971 $w=1.5e-07 $l=2.07e-07 $layer=POLY_cond $X=1.46 $Y=0.995
+ $X2=1.46 $Y2=1.202
r106 16 18 139.78 $w=1.5e-07 $l=4.35e-07 $layer=POLY_cond $X=1.46 $Y=0.995
+ $X2=1.46 $Y2=0.56
r107 13 34 19.7411 $w=1.8e-07 $l=2.08e-07 $layer=POLY_cond $X=1.435 $Y=1.41
+ $X2=1.435 $Y2=1.202
r108 13 15 153.972 $w=1.8e-07 $l=5.75e-07 $layer=POLY_cond $X=1.435 $Y=1.41
+ $X2=1.435 $Y2=1.985
r109 10 33 19.7411 $w=1.8e-07 $l=2.08e-07 $layer=POLY_cond $X=0.965 $Y=1.41
+ $X2=0.965 $Y2=1.202
r110 10 12 153.972 $w=1.8e-07 $l=5.75e-07 $layer=POLY_cond $X=0.965 $Y=1.41
+ $X2=0.965 $Y2=1.985
r111 7 32 24.0971 $w=1.5e-07 $l=2.07e-07 $layer=POLY_cond $X=0.94 $Y=0.995
+ $X2=0.94 $Y2=1.202
r112 7 9 139.78 $w=1.5e-07 $l=4.35e-07 $layer=POLY_cond $X=0.94 $Y=0.995
+ $X2=0.94 $Y2=0.56
r113 4 28 24.0971 $w=1.5e-07 $l=2.07e-07 $layer=POLY_cond $X=0.52 $Y=0.995
+ $X2=0.52 $Y2=1.202
r114 4 6 139.78 $w=1.5e-07 $l=4.35e-07 $layer=POLY_cond $X=0.52 $Y=0.995
+ $X2=0.52 $Y2=0.56
r115 1 27 19.7411 $w=1.8e-07 $l=2.08e-07 $layer=POLY_cond $X=0.495 $Y=1.41
+ $X2=0.495 $Y2=1.202
r116 1 3 153.972 $w=1.8e-07 $l=5.75e-07 $layer=POLY_cond $X=0.495 $Y=1.41
+ $X2=0.495 $Y2=1.985
.ends

.subckt PM_SKY130_FD_SC_HDLL__MUX2_16%S 1 3 4 6 7 9 10 12 13 15 16 18 19 21 22
+ 24 25 27 28 30 31 33 34 36 37 43 55
r124 55 56 3.25676 $w=3.7e-07 $l=2.5e-08 $layer=POLY_cond $X=5.22 $Y=1.202
+ $X2=5.245 $Y2=1.202
r125 54 55 54.7135 $w=3.7e-07 $l=4.2e-07 $layer=POLY_cond $X=4.8 $Y=1.202
+ $X2=5.22 $Y2=1.202
r126 53 54 3.25676 $w=3.7e-07 $l=2.5e-08 $layer=POLY_cond $X=4.775 $Y=1.202
+ $X2=4.8 $Y2=1.202
r127 52 53 61.227 $w=3.7e-07 $l=4.7e-07 $layer=POLY_cond $X=4.305 $Y=1.202
+ $X2=4.775 $Y2=1.202
r128 51 52 3.25676 $w=3.7e-07 $l=2.5e-08 $layer=POLY_cond $X=4.28 $Y=1.202
+ $X2=4.305 $Y2=1.202
r129 49 51 22.1459 $w=3.7e-07 $l=1.7e-07 $layer=POLY_cond $X=4.11 $Y=1.202
+ $X2=4.28 $Y2=1.202
r130 47 49 32.5676 $w=3.7e-07 $l=2.5e-07 $layer=POLY_cond $X=3.86 $Y=1.202
+ $X2=4.11 $Y2=1.202
r131 46 47 3.25676 $w=3.7e-07 $l=2.5e-08 $layer=POLY_cond $X=3.835 $Y=1.202
+ $X2=3.86 $Y2=1.202
r132 45 46 61.227 $w=3.7e-07 $l=4.7e-07 $layer=POLY_cond $X=3.365 $Y=1.202
+ $X2=3.835 $Y2=1.202
r133 44 45 3.25676 $w=3.7e-07 $l=2.5e-08 $layer=POLY_cond $X=3.34 $Y=1.202
+ $X2=3.365 $Y2=1.202
r134 43 49 72.64 $w=1.7e-07 $l=3.4e-07 $layer=licon1_POLY $count=2 $X=4.11
+ $Y=1.16 $X2=4.11 $Y2=1.16
r135 42 44 32.5676 $w=3.7e-07 $l=2.5e-07 $layer=POLY_cond $X=3.09 $Y=1.202
+ $X2=3.34 $Y2=1.202
r136 42 43 72.64 $w=1.7e-07 $l=3.4e-07 $layer=licon1_POLY $count=2 $X=3.09
+ $Y=1.16 $X2=3.09 $Y2=1.16
r137 40 42 22.1459 $w=3.7e-07 $l=1.7e-07 $layer=POLY_cond $X=2.92 $Y=1.202
+ $X2=3.09 $Y2=1.202
r138 39 40 3.25676 $w=3.7e-07 $l=2.5e-08 $layer=POLY_cond $X=2.895 $Y=1.202
+ $X2=2.92 $Y2=1.202
r139 37 43 0.271111 $w=1.348e-06 $l=3e-08 $layer=LI1_cond $X=3.6 $Y=1.19 $X2=3.6
+ $Y2=1.16
r140 34 56 19.6139 $w=1.8e-07 $l=2.08e-07 $layer=POLY_cond $X=5.245 $Y=1.41
+ $X2=5.245 $Y2=1.202
r141 34 36 153.972 $w=1.8e-07 $l=5.75e-07 $layer=POLY_cond $X=5.245 $Y=1.41
+ $X2=5.245 $Y2=1.985
r142 31 55 23.9667 $w=1.5e-07 $l=2.07e-07 $layer=POLY_cond $X=5.22 $Y=0.995
+ $X2=5.22 $Y2=1.202
r143 31 33 139.78 $w=1.5e-07 $l=4.35e-07 $layer=POLY_cond $X=5.22 $Y=0.995
+ $X2=5.22 $Y2=0.56
r144 28 54 23.9667 $w=1.5e-07 $l=2.07e-07 $layer=POLY_cond $X=4.8 $Y=0.995
+ $X2=4.8 $Y2=1.202
r145 28 30 139.78 $w=1.5e-07 $l=4.35e-07 $layer=POLY_cond $X=4.8 $Y=0.995
+ $X2=4.8 $Y2=0.56
r146 25 53 19.6139 $w=1.8e-07 $l=2.08e-07 $layer=POLY_cond $X=4.775 $Y=1.41
+ $X2=4.775 $Y2=1.202
r147 25 27 153.972 $w=1.8e-07 $l=5.75e-07 $layer=POLY_cond $X=4.775 $Y=1.41
+ $X2=4.775 $Y2=1.985
r148 22 52 19.6139 $w=1.8e-07 $l=2.08e-07 $layer=POLY_cond $X=4.305 $Y=1.41
+ $X2=4.305 $Y2=1.202
r149 22 24 153.972 $w=1.8e-07 $l=5.75e-07 $layer=POLY_cond $X=4.305 $Y=1.41
+ $X2=4.305 $Y2=1.985
r150 19 51 23.9667 $w=1.5e-07 $l=2.07e-07 $layer=POLY_cond $X=4.28 $Y=0.995
+ $X2=4.28 $Y2=1.202
r151 19 21 139.78 $w=1.5e-07 $l=4.35e-07 $layer=POLY_cond $X=4.28 $Y=0.995
+ $X2=4.28 $Y2=0.56
r152 16 47 23.9667 $w=1.5e-07 $l=2.07e-07 $layer=POLY_cond $X=3.86 $Y=0.995
+ $X2=3.86 $Y2=1.202
r153 16 18 139.78 $w=1.5e-07 $l=4.35e-07 $layer=POLY_cond $X=3.86 $Y=0.995
+ $X2=3.86 $Y2=0.56
r154 13 46 19.6139 $w=1.8e-07 $l=2.08e-07 $layer=POLY_cond $X=3.835 $Y=1.41
+ $X2=3.835 $Y2=1.202
r155 13 15 153.972 $w=1.8e-07 $l=5.75e-07 $layer=POLY_cond $X=3.835 $Y=1.41
+ $X2=3.835 $Y2=1.985
r156 10 45 19.6139 $w=1.8e-07 $l=2.08e-07 $layer=POLY_cond $X=3.365 $Y=1.41
+ $X2=3.365 $Y2=1.202
r157 10 12 153.972 $w=1.8e-07 $l=5.75e-07 $layer=POLY_cond $X=3.365 $Y=1.41
+ $X2=3.365 $Y2=1.985
r158 7 44 23.9667 $w=1.5e-07 $l=2.07e-07 $layer=POLY_cond $X=3.34 $Y=0.995
+ $X2=3.34 $Y2=1.202
r159 7 9 139.78 $w=1.5e-07 $l=4.35e-07 $layer=POLY_cond $X=3.34 $Y=0.995
+ $X2=3.34 $Y2=0.56
r160 4 40 23.9667 $w=1.5e-07 $l=2.07e-07 $layer=POLY_cond $X=2.92 $Y=0.995
+ $X2=2.92 $Y2=1.202
r161 4 6 139.78 $w=1.5e-07 $l=4.35e-07 $layer=POLY_cond $X=2.92 $Y=0.995
+ $X2=2.92 $Y2=0.56
r162 1 39 19.6139 $w=1.8e-07 $l=2.08e-07 $layer=POLY_cond $X=2.895 $Y=1.41
+ $X2=2.895 $Y2=1.202
r163 1 3 153.972 $w=1.8e-07 $l=5.75e-07 $layer=POLY_cond $X=2.895 $Y=1.41
+ $X2=2.895 $Y2=1.985
.ends

.subckt PM_SKY130_FD_SC_HDLL__MUX2_16%A_973_297# 1 2 7 9 10 12 13 15 16 18 19 21
+ 22 24 25 27 28 30 33 37 46 49 58
r122 58 59 3.23925 $w=3.72e-07 $l=2.5e-08 $layer=POLY_cond $X=7.1 $Y=1.202
+ $X2=7.125 $Y2=1.202
r123 55 56 3.23925 $w=3.72e-07 $l=2.5e-08 $layer=POLY_cond $X=6.655 $Y=1.202
+ $X2=6.68 $Y2=1.202
r124 54 55 60.8979 $w=3.72e-07 $l=4.7e-07 $layer=POLY_cond $X=6.185 $Y=1.202
+ $X2=6.655 $Y2=1.202
r125 53 54 3.23925 $w=3.72e-07 $l=2.5e-08 $layer=POLY_cond $X=6.16 $Y=1.202
+ $X2=6.185 $Y2=1.202
r126 50 51 3.23925 $w=3.72e-07 $l=2.5e-08 $layer=POLY_cond $X=5.715 $Y=1.202
+ $X2=5.74 $Y2=1.202
r127 47 58 22.0269 $w=3.72e-07 $l=1.7e-07 $layer=POLY_cond $X=6.93 $Y=1.202
+ $X2=7.1 $Y2=1.202
r128 47 56 32.3925 $w=3.72e-07 $l=2.5e-07 $layer=POLY_cond $X=6.93 $Y=1.202
+ $X2=6.68 $Y2=1.202
r129 46 47 72.64 $w=1.7e-07 $l=3.4e-07 $layer=licon1_POLY $count=2 $X=6.93
+ $Y=1.16 $X2=6.93 $Y2=1.16
r130 44 53 32.3925 $w=3.72e-07 $l=2.5e-07 $layer=POLY_cond $X=5.91 $Y=1.202
+ $X2=6.16 $Y2=1.202
r131 44 51 22.0269 $w=3.72e-07 $l=1.7e-07 $layer=POLY_cond $X=5.91 $Y=1.202
+ $X2=5.74 $Y2=1.202
r132 43 46 47.0197 $w=2.48e-07 $l=1.02e-06 $layer=LI1_cond $X=5.91 $Y=1.2
+ $X2=6.93 $Y2=1.2
r133 43 44 72.64 $w=1.7e-07 $l=3.4e-07 $layer=licon1_POLY $count=2 $X=5.91
+ $Y=1.16 $X2=5.91 $Y2=1.16
r134 41 49 2.3589 $w=2.5e-07 $l=1.65e-07 $layer=LI1_cond $X=5.175 $Y=1.2
+ $X2=5.01 $Y2=1.2
r135 41 43 33.8818 $w=2.48e-07 $l=7.35e-07 $layer=LI1_cond $X=5.175 $Y=1.2
+ $X2=5.91 $Y2=1.2
r136 37 39 23.7473 $w=3.28e-07 $l=6.8e-07 $layer=LI1_cond $X=5.01 $Y=1.66
+ $X2=5.01 $Y2=2.34
r137 35 49 4.07664 $w=3.3e-07 $l=1.25e-07 $layer=LI1_cond $X=5.01 $Y=1.325
+ $X2=5.01 $Y2=1.2
r138 35 37 11.699 $w=3.28e-07 $l=3.35e-07 $layer=LI1_cond $X=5.01 $Y=1.325
+ $X2=5.01 $Y2=1.66
r139 31 49 4.07664 $w=3.3e-07 $l=1.25e-07 $layer=LI1_cond $X=5.01 $Y=1.075
+ $X2=5.01 $Y2=1.2
r140 31 33 22.8742 $w=3.28e-07 $l=6.55e-07 $layer=LI1_cond $X=5.01 $Y=1.075
+ $X2=5.01 $Y2=0.42
r141 28 59 19.7411 $w=1.8e-07 $l=2.08e-07 $layer=POLY_cond $X=7.125 $Y=1.41
+ $X2=7.125 $Y2=1.202
r142 28 30 153.972 $w=1.8e-07 $l=5.75e-07 $layer=POLY_cond $X=7.125 $Y=1.41
+ $X2=7.125 $Y2=1.985
r143 25 58 24.0971 $w=1.5e-07 $l=2.07e-07 $layer=POLY_cond $X=7.1 $Y=0.995
+ $X2=7.1 $Y2=1.202
r144 25 27 139.78 $w=1.5e-07 $l=4.35e-07 $layer=POLY_cond $X=7.1 $Y=0.995
+ $X2=7.1 $Y2=0.56
r145 22 56 24.0971 $w=1.5e-07 $l=2.07e-07 $layer=POLY_cond $X=6.68 $Y=0.995
+ $X2=6.68 $Y2=1.202
r146 22 24 139.78 $w=1.5e-07 $l=4.35e-07 $layer=POLY_cond $X=6.68 $Y=0.995
+ $X2=6.68 $Y2=0.56
r147 19 55 19.7411 $w=1.8e-07 $l=2.08e-07 $layer=POLY_cond $X=6.655 $Y=1.41
+ $X2=6.655 $Y2=1.202
r148 19 21 153.972 $w=1.8e-07 $l=5.75e-07 $layer=POLY_cond $X=6.655 $Y=1.41
+ $X2=6.655 $Y2=1.985
r149 16 54 19.7411 $w=1.8e-07 $l=2.08e-07 $layer=POLY_cond $X=6.185 $Y=1.41
+ $X2=6.185 $Y2=1.202
r150 16 18 153.972 $w=1.8e-07 $l=5.75e-07 $layer=POLY_cond $X=6.185 $Y=1.41
+ $X2=6.185 $Y2=1.985
r151 13 53 24.0971 $w=1.5e-07 $l=2.07e-07 $layer=POLY_cond $X=6.16 $Y=0.995
+ $X2=6.16 $Y2=1.202
r152 13 15 139.78 $w=1.5e-07 $l=4.35e-07 $layer=POLY_cond $X=6.16 $Y=0.995
+ $X2=6.16 $Y2=0.56
r153 10 51 24.0971 $w=1.5e-07 $l=2.07e-07 $layer=POLY_cond $X=5.74 $Y=0.995
+ $X2=5.74 $Y2=1.202
r154 10 12 139.78 $w=1.5e-07 $l=4.35e-07 $layer=POLY_cond $X=5.74 $Y=0.995
+ $X2=5.74 $Y2=0.56
r155 7 50 19.7411 $w=1.8e-07 $l=2.08e-07 $layer=POLY_cond $X=5.715 $Y=1.41
+ $X2=5.715 $Y2=1.202
r156 7 9 153.972 $w=1.8e-07 $l=5.75e-07 $layer=POLY_cond $X=5.715 $Y=1.41
+ $X2=5.715 $Y2=1.985
r157 2 39 400 $w=1.7e-07 $l=9.24662e-07 $layer=licon1_PDIFF $count=1 $X=4.865
+ $Y=1.485 $X2=5.01 $Y2=2.34
r158 2 37 400 $w=1.7e-07 $l=2.36643e-07 $layer=licon1_PDIFF $count=1 $X=4.865
+ $Y=1.485 $X2=5.01 $Y2=1.66
r159 1 33 91 $w=1.7e-07 $l=2.43311e-07 $layer=licon1_NDIFF $count=2 $X=4.875
+ $Y=0.235 $X2=5.01 $Y2=0.42
.ends

.subckt PM_SKY130_FD_SC_HDLL__MUX2_16%A0 1 3 4 6 7 9 10 12 13 15 16 18 19 21 22
+ 24 25 38 39
r92 39 40 3.23925 $w=3.72e-07 $l=2.5e-08 $layer=POLY_cond $X=9.5 $Y=1.202
+ $X2=9.525 $Y2=1.202
r93 37 39 27.2097 $w=3.72e-07 $l=2.1e-07 $layer=POLY_cond $X=9.29 $Y=1.202
+ $X2=9.5 $Y2=1.202
r94 37 38 72.64 $w=1.7e-07 $l=3.4e-07 $layer=licon1_POLY $count=2 $X=9.29
+ $Y=1.16 $X2=9.29 $Y2=1.16
r95 35 37 27.2097 $w=3.72e-07 $l=2.1e-07 $layer=POLY_cond $X=9.08 $Y=1.202
+ $X2=9.29 $Y2=1.202
r96 34 35 3.23925 $w=3.72e-07 $l=2.5e-08 $layer=POLY_cond $X=9.055 $Y=1.202
+ $X2=9.08 $Y2=1.202
r97 33 34 60.8979 $w=3.72e-07 $l=4.7e-07 $layer=POLY_cond $X=8.585 $Y=1.202
+ $X2=9.055 $Y2=1.202
r98 32 33 3.23925 $w=3.72e-07 $l=2.5e-08 $layer=POLY_cond $X=8.56 $Y=1.202
+ $X2=8.585 $Y2=1.202
r99 30 32 37.5753 $w=3.72e-07 $l=2.9e-07 $layer=POLY_cond $X=8.27 $Y=1.202
+ $X2=8.56 $Y2=1.202
r100 30 31 72.64 $w=1.7e-07 $l=3.4e-07 $layer=licon1_POLY $count=2 $X=8.27
+ $Y=1.16 $X2=8.27 $Y2=1.16
r101 28 30 16.8441 $w=3.72e-07 $l=1.3e-07 $layer=POLY_cond $X=8.14 $Y=1.202
+ $X2=8.27 $Y2=1.202
r102 27 28 3.23925 $w=3.72e-07 $l=2.5e-08 $layer=POLY_cond $X=8.115 $Y=1.202
+ $X2=8.14 $Y2=1.202
r103 25 38 14.7513 $w=2.48e-07 $l=3.2e-07 $layer=LI1_cond $X=8.97 $Y=1.2
+ $X2=9.29 $Y2=1.2
r104 25 31 32.2684 $w=2.48e-07 $l=7e-07 $layer=LI1_cond $X=8.97 $Y=1.2 $X2=8.27
+ $Y2=1.2
r105 22 40 19.7411 $w=1.8e-07 $l=2.08e-07 $layer=POLY_cond $X=9.525 $Y=1.41
+ $X2=9.525 $Y2=1.202
r106 22 24 153.972 $w=1.8e-07 $l=5.75e-07 $layer=POLY_cond $X=9.525 $Y=1.41
+ $X2=9.525 $Y2=1.985
r107 19 39 24.0971 $w=1.5e-07 $l=2.07e-07 $layer=POLY_cond $X=9.5 $Y=0.995
+ $X2=9.5 $Y2=1.202
r108 19 21 139.78 $w=1.5e-07 $l=4.35e-07 $layer=POLY_cond $X=9.5 $Y=0.995
+ $X2=9.5 $Y2=0.56
r109 16 35 24.0971 $w=1.5e-07 $l=2.07e-07 $layer=POLY_cond $X=9.08 $Y=0.995
+ $X2=9.08 $Y2=1.202
r110 16 18 139.78 $w=1.5e-07 $l=4.35e-07 $layer=POLY_cond $X=9.08 $Y=0.995
+ $X2=9.08 $Y2=0.56
r111 13 34 19.7411 $w=1.8e-07 $l=2.08e-07 $layer=POLY_cond $X=9.055 $Y=1.41
+ $X2=9.055 $Y2=1.202
r112 13 15 153.972 $w=1.8e-07 $l=5.75e-07 $layer=POLY_cond $X=9.055 $Y=1.41
+ $X2=9.055 $Y2=1.985
r113 10 33 19.7411 $w=1.8e-07 $l=2.08e-07 $layer=POLY_cond $X=8.585 $Y=1.41
+ $X2=8.585 $Y2=1.202
r114 10 12 153.972 $w=1.8e-07 $l=5.75e-07 $layer=POLY_cond $X=8.585 $Y=1.41
+ $X2=8.585 $Y2=1.985
r115 7 32 24.0971 $w=1.5e-07 $l=2.07e-07 $layer=POLY_cond $X=8.56 $Y=0.995
+ $X2=8.56 $Y2=1.202
r116 7 9 139.78 $w=1.5e-07 $l=4.35e-07 $layer=POLY_cond $X=8.56 $Y=0.995
+ $X2=8.56 $Y2=0.56
r117 4 28 24.0971 $w=1.5e-07 $l=2.07e-07 $layer=POLY_cond $X=8.14 $Y=0.995
+ $X2=8.14 $Y2=1.202
r118 4 6 139.78 $w=1.5e-07 $l=4.35e-07 $layer=POLY_cond $X=8.14 $Y=0.995
+ $X2=8.14 $Y2=0.56
r119 1 27 19.7411 $w=1.8e-07 $l=2.08e-07 $layer=POLY_cond $X=8.115 $Y=1.41
+ $X2=8.115 $Y2=1.202
r120 1 3 153.972 $w=1.8e-07 $l=5.75e-07 $layer=POLY_cond $X=8.115 $Y=1.41
+ $X2=8.115 $Y2=1.985
.ends

.subckt PM_SKY130_FD_SC_HDLL__MUX2_16%A_27_47# 1 2 3 4 5 6 7 8 9 10 11 12 37 39
+ 40 42 43 45 46 48 49 51 52 54 55 57 58 60 61 63 64 66 67 69 70 72 73 75 76 78
+ 79 81 82 84 85 87 88 90 91 93 94 96 97 99 100 102 103 105 106 108 109 111 112
+ 114 115 117 118 120 121 123 124 126 127 129 130 132 135 139 143 145 147 149
+ 151 155 159 161 163 166 168 174 177 180 185 186 187 189 190 197 202 203 204
+ 205 209 212 213 216 219 220 254
c560 219 0 1.96891e-19 $X=9.76 $Y=0.51
c561 213 0 1.96891e-19 $X=0.405 $Y=0.51
r562 254 255 3.28338 $w=3.67e-07 $l=2.5e-08 $layer=POLY_cond $X=17.54 $Y=1.202
+ $X2=17.565 $Y2=1.202
r563 253 254 55.1608 $w=3.67e-07 $l=4.2e-07 $layer=POLY_cond $X=17.12 $Y=1.202
+ $X2=17.54 $Y2=1.202
r564 252 253 3.28338 $w=3.67e-07 $l=2.5e-08 $layer=POLY_cond $X=17.095 $Y=1.202
+ $X2=17.12 $Y2=1.202
r565 249 250 3.28338 $w=3.67e-07 $l=2.5e-08 $layer=POLY_cond $X=16.6 $Y=1.202
+ $X2=16.625 $Y2=1.202
r566 248 249 55.1608 $w=3.67e-07 $l=4.2e-07 $layer=POLY_cond $X=16.18 $Y=1.202
+ $X2=16.6 $Y2=1.202
r567 247 248 3.28338 $w=3.67e-07 $l=2.5e-08 $layer=POLY_cond $X=16.155 $Y=1.202
+ $X2=16.18 $Y2=1.202
r568 246 247 61.7275 $w=3.67e-07 $l=4.7e-07 $layer=POLY_cond $X=15.685 $Y=1.202
+ $X2=16.155 $Y2=1.202
r569 245 246 3.28338 $w=3.67e-07 $l=2.5e-08 $layer=POLY_cond $X=15.66 $Y=1.202
+ $X2=15.685 $Y2=1.202
r570 244 245 55.1608 $w=3.67e-07 $l=4.2e-07 $layer=POLY_cond $X=15.24 $Y=1.202
+ $X2=15.66 $Y2=1.202
r571 243 244 3.28338 $w=3.67e-07 $l=2.5e-08 $layer=POLY_cond $X=15.215 $Y=1.202
+ $X2=15.24 $Y2=1.202
r572 242 243 61.7275 $w=3.67e-07 $l=4.7e-07 $layer=POLY_cond $X=14.745 $Y=1.202
+ $X2=15.215 $Y2=1.202
r573 241 242 3.28338 $w=3.67e-07 $l=2.5e-08 $layer=POLY_cond $X=14.72 $Y=1.202
+ $X2=14.745 $Y2=1.202
r574 240 241 55.1608 $w=3.67e-07 $l=4.2e-07 $layer=POLY_cond $X=14.3 $Y=1.202
+ $X2=14.72 $Y2=1.202
r575 239 240 3.28338 $w=3.67e-07 $l=2.5e-08 $layer=POLY_cond $X=14.275 $Y=1.202
+ $X2=14.3 $Y2=1.202
r576 238 239 61.7275 $w=3.67e-07 $l=4.7e-07 $layer=POLY_cond $X=13.805 $Y=1.202
+ $X2=14.275 $Y2=1.202
r577 237 238 3.28338 $w=3.67e-07 $l=2.5e-08 $layer=POLY_cond $X=13.78 $Y=1.202
+ $X2=13.805 $Y2=1.202
r578 236 237 55.1608 $w=3.67e-07 $l=4.2e-07 $layer=POLY_cond $X=13.36 $Y=1.202
+ $X2=13.78 $Y2=1.202
r579 235 236 3.28338 $w=3.67e-07 $l=2.5e-08 $layer=POLY_cond $X=13.335 $Y=1.202
+ $X2=13.36 $Y2=1.202
r580 234 235 61.7275 $w=3.67e-07 $l=4.7e-07 $layer=POLY_cond $X=12.865 $Y=1.202
+ $X2=13.335 $Y2=1.202
r581 233 234 3.28338 $w=3.67e-07 $l=2.5e-08 $layer=POLY_cond $X=12.84 $Y=1.202
+ $X2=12.865 $Y2=1.202
r582 232 233 55.1608 $w=3.67e-07 $l=4.2e-07 $layer=POLY_cond $X=12.42 $Y=1.202
+ $X2=12.84 $Y2=1.202
r583 231 232 3.28338 $w=3.67e-07 $l=2.5e-08 $layer=POLY_cond $X=12.395 $Y=1.202
+ $X2=12.42 $Y2=1.202
r584 230 231 61.7275 $w=3.67e-07 $l=4.7e-07 $layer=POLY_cond $X=11.925 $Y=1.202
+ $X2=12.395 $Y2=1.202
r585 229 230 3.28338 $w=3.67e-07 $l=2.5e-08 $layer=POLY_cond $X=11.9 $Y=1.202
+ $X2=11.925 $Y2=1.202
r586 228 229 55.1608 $w=3.67e-07 $l=4.2e-07 $layer=POLY_cond $X=11.48 $Y=1.202
+ $X2=11.9 $Y2=1.202
r587 227 228 3.28338 $w=3.67e-07 $l=2.5e-08 $layer=POLY_cond $X=11.455 $Y=1.202
+ $X2=11.48 $Y2=1.202
r588 226 227 61.7275 $w=3.67e-07 $l=4.7e-07 $layer=POLY_cond $X=10.985 $Y=1.202
+ $X2=11.455 $Y2=1.202
r589 225 226 3.28338 $w=3.67e-07 $l=2.5e-08 $layer=POLY_cond $X=10.96 $Y=1.202
+ $X2=10.985 $Y2=1.202
r590 222 223 3.28338 $w=3.67e-07 $l=2.5e-08 $layer=POLY_cond $X=10.515 $Y=1.202
+ $X2=10.54 $Y2=1.202
r591 219 220 9.3 $w=1.7e-07 $l=1.7e-07 $layer=mcon $count=1 $X=9.76 $Y=0.51
+ $X2=9.76 $Y2=0.51
r592 216 258 44.177 $w=2.98e-07 $l=1.15e-06 $layer=LI1_cond $X=0.245 $Y=0.51
+ $X2=0.245 $Y2=1.66
r593 215 216 9.3 $w=1.7e-07 $l=1.7e-07 $layer=mcon $count=1 $X=0.26 $Y=0.51
+ $X2=0.26 $Y2=0.51
r594 213 215 0.115467 $w=2.3e-07 $l=1.45e-07 $layer=MET1_cond $X=0.405 $Y=0.51
+ $X2=0.26 $Y2=0.51
r595 212 219 0.115467 $w=2.3e-07 $l=1.45e-07 $layer=MET1_cond $X=9.615 $Y=0.51
+ $X2=9.76 $Y2=0.51
r596 212 213 11.3985 $w=1.4e-07 $l=9.21e-06 $layer=MET1_cond $X=9.615 $Y=0.51
+ $X2=0.405 $Y2=0.51
r597 208 220 21.7043 $w=2.98e-07 $l=5.65e-07 $layer=LI1_cond $X=9.775 $Y=1.075
+ $X2=9.775 $Y2=0.51
r598 208 209 4.4274 $w=3e-07 $l=1.25e-07 $layer=LI1_cond $X=9.775 $Y=1.075
+ $X2=9.775 $Y2=1.2
r599 205 220 3.26526 $w=2.98e-07 $l=8.5e-08 $layer=LI1_cond $X=9.775 $Y=0.425
+ $X2=9.775 $Y2=0.51
r600 205 207 2.71916 $w=3e-07 $l=8.5e-08 $layer=LI1_cond $X=9.775 $Y=0.425
+ $X2=9.775 $Y2=0.34
r601 201 203 7.32169 $w=2.88e-07 $l=1.35e-07 $layer=LI1_cond $X=8.82 $Y=0.4
+ $X2=8.955 $Y2=0.4
r602 201 202 7.32169 $w=2.88e-07 $l=1.35e-07 $layer=LI1_cond $X=8.82 $Y=0.4
+ $X2=8.685 $Y2=0.4
r603 197 202 43.7112 $w=1.68e-07 $l=6.7e-07 $layer=LI1_cond $X=8.015 $Y=0.34
+ $X2=8.685 $Y2=0.34
r604 195 197 7.32568 $w=2.93e-07 $l=1.35e-07 $layer=LI1_cond $X=7.88 $Y=0.402
+ $X2=8.015 $Y2=0.402
r605 189 190 7.32568 $w=2.93e-07 $l=1.35e-07 $layer=LI1_cond $X=2.14 $Y=0.402
+ $X2=2.005 $Y2=0.402
r606 186 190 43.7112 $w=1.68e-07 $l=6.7e-07 $layer=LI1_cond $X=1.335 $Y=0.34
+ $X2=2.005 $Y2=0.34
r607 184 186 7.32169 $w=2.88e-07 $l=1.35e-07 $layer=LI1_cond $X=1.2 $Y=0.4
+ $X2=1.335 $Y2=0.4
r608 184 185 7.32169 $w=2.88e-07 $l=1.35e-07 $layer=LI1_cond $X=1.2 $Y=0.4
+ $X2=1.065 $Y2=0.4
r609 180 258 24.3934 $w=2.98e-07 $l=6.35e-07 $layer=LI1_cond $X=0.245 $Y=2.295
+ $X2=0.245 $Y2=1.66
r610 180 182 2.71916 $w=3e-07 $l=8.5e-08 $layer=LI1_cond $X=0.245 $Y=2.295
+ $X2=0.245 $Y2=2.38
r611 177 216 3.26526 $w=2.98e-07 $l=8.5e-08 $layer=LI1_cond $X=0.245 $Y=0.425
+ $X2=0.245 $Y2=0.51
r612 177 179 2.71916 $w=3e-07 $l=8.5e-08 $layer=LI1_cond $X=0.245 $Y=0.425
+ $X2=0.245 $Y2=0.34
r613 175 252 51.8774 $w=3.67e-07 $l=3.95e-07 $layer=POLY_cond $X=16.7 $Y=1.202
+ $X2=17.095 $Y2=1.202
r614 175 250 9.85014 $w=3.67e-07 $l=7.5e-08 $layer=POLY_cond $X=16.7 $Y=1.202
+ $X2=16.625 $Y2=1.202
r615 174 175 15.2926 $w=1.7e-07 $l=1.615e-06 $layer=licon1_POLY $count=9 $X=16.7
+ $Y=1.16 $X2=16.7 $Y2=1.16
r616 172 225 49.9074 $w=3.67e-07 $l=3.8e-07 $layer=POLY_cond $X=10.58 $Y=1.202
+ $X2=10.96 $Y2=1.202
r617 172 223 5.25341 $w=3.67e-07 $l=4e-08 $layer=POLY_cond $X=10.58 $Y=1.202
+ $X2=10.54 $Y2=1.202
r618 171 174 282.118 $w=2.48e-07 $l=6.12e-06 $layer=LI1_cond $X=10.58 $Y=1.2
+ $X2=16.7 $Y2=1.2
r619 171 172 15.2926 $w=1.7e-07 $l=1.615e-06 $layer=licon1_POLY $count=9
+ $X=10.58 $Y=1.16 $X2=10.58 $Y2=1.16
r620 169 209 2.0066 $w=2.5e-07 $l=1.5e-07 $layer=LI1_cond $X=9.925 $Y=1.2
+ $X2=9.775 $Y2=1.2
r621 169 171 30.194 $w=2.48e-07 $l=6.55e-07 $layer=LI1_cond $X=9.925 $Y=1.2
+ $X2=10.58 $Y2=1.2
r622 166 211 2.71916 $w=3e-07 $l=8.5e-08 $layer=LI1_cond $X=9.775 $Y=2.295
+ $X2=9.775 $Y2=2.38
r623 166 168 24.3934 $w=2.98e-07 $l=6.35e-07 $layer=LI1_cond $X=9.775 $Y=2.295
+ $X2=9.775 $Y2=1.66
r624 165 209 4.4274 $w=3e-07 $l=1.25e-07 $layer=LI1_cond $X=9.775 $Y=1.325
+ $X2=9.775 $Y2=1.2
r625 165 168 12.8689 $w=2.98e-07 $l=3.35e-07 $layer=LI1_cond $X=9.775 $Y=1.325
+ $X2=9.775 $Y2=1.66
r626 164 204 7.44763 $w=1.7e-07 $l=1.35e-07 $layer=LI1_cond $X=8.955 $Y=2.38
+ $X2=8.82 $Y2=2.38
r627 163 211 4.79851 $w=1.7e-07 $l=1.5e-07 $layer=LI1_cond $X=9.625 $Y=2.38
+ $X2=9.775 $Y2=2.38
r628 163 164 43.7112 $w=1.68e-07 $l=6.7e-07 $layer=LI1_cond $X=9.625 $Y=2.38
+ $X2=8.955 $Y2=2.38
r629 161 207 4.79851 $w=1.7e-07 $l=1.5e-07 $layer=LI1_cond $X=9.625 $Y=0.34
+ $X2=9.775 $Y2=0.34
r630 161 203 43.7112 $w=1.68e-07 $l=6.7e-07 $layer=LI1_cond $X=9.625 $Y=0.34
+ $X2=8.955 $Y2=0.34
r631 157 204 0.256868 $w=2.7e-07 $l=8.5e-08 $layer=LI1_cond $X=8.82 $Y=2.295
+ $X2=8.82 $Y2=2.38
r632 157 159 12.5915 $w=2.68e-07 $l=2.95e-07 $layer=LI1_cond $X=8.82 $Y=2.295
+ $X2=8.82 $Y2=2
r633 156 199 4.79851 $w=1.7e-07 $l=1.5e-07 $layer=LI1_cond $X=8.015 $Y=2.38
+ $X2=7.865 $Y2=2.38
r634 155 204 7.44763 $w=1.7e-07 $l=1.35e-07 $layer=LI1_cond $X=8.685 $Y=2.38
+ $X2=8.82 $Y2=2.38
r635 155 156 43.7112 $w=1.68e-07 $l=6.7e-07 $layer=LI1_cond $X=8.685 $Y=2.38
+ $X2=8.015 $Y2=2.38
r636 149 199 2.71916 $w=3e-07 $l=8.5e-08 $layer=LI1_cond $X=7.865 $Y=2.295
+ $X2=7.865 $Y2=2.38
r637 149 151 24.3934 $w=2.98e-07 $l=6.35e-07 $layer=LI1_cond $X=7.865 $Y=2.295
+ $X2=7.865 $Y2=1.66
r638 145 193 2.71916 $w=3e-07 $l=8.5e-08 $layer=LI1_cond $X=2.155 $Y=2.295
+ $X2=2.155 $Y2=2.38
r639 145 147 24.3934 $w=2.98e-07 $l=6.35e-07 $layer=LI1_cond $X=2.155 $Y=2.295
+ $X2=2.155 $Y2=1.66
r640 144 187 7.44763 $w=1.7e-07 $l=1.35e-07 $layer=LI1_cond $X=1.335 $Y=2.38
+ $X2=1.2 $Y2=2.38
r641 143 193 4.79851 $w=1.7e-07 $l=1.5e-07 $layer=LI1_cond $X=2.005 $Y=2.38
+ $X2=2.155 $Y2=2.38
r642 143 144 43.7112 $w=1.68e-07 $l=6.7e-07 $layer=LI1_cond $X=2.005 $Y=2.38
+ $X2=1.335 $Y2=2.38
r643 137 187 0.256868 $w=2.7e-07 $l=8.5e-08 $layer=LI1_cond $X=1.2 $Y=2.295
+ $X2=1.2 $Y2=2.38
r644 137 139 12.5915 $w=2.68e-07 $l=2.95e-07 $layer=LI1_cond $X=1.2 $Y=2.295
+ $X2=1.2 $Y2=2
r645 136 182 4.79851 $w=1.7e-07 $l=1.5e-07 $layer=LI1_cond $X=0.395 $Y=2.38
+ $X2=0.245 $Y2=2.38
r646 135 187 7.44763 $w=1.7e-07 $l=1.35e-07 $layer=LI1_cond $X=1.065 $Y=2.38
+ $X2=1.2 $Y2=2.38
r647 135 136 43.7112 $w=1.68e-07 $l=6.7e-07 $layer=LI1_cond $X=1.065 $Y=2.38
+ $X2=0.395 $Y2=2.38
r648 134 179 4.79851 $w=1.7e-07 $l=1.5e-07 $layer=LI1_cond $X=0.395 $Y=0.34
+ $X2=0.245 $Y2=0.34
r649 134 185 43.7112 $w=1.68e-07 $l=6.7e-07 $layer=LI1_cond $X=0.395 $Y=0.34
+ $X2=1.065 $Y2=0.34
r650 130 255 19.4219 $w=1.8e-07 $l=2.08e-07 $layer=POLY_cond $X=17.565 $Y=1.41
+ $X2=17.565 $Y2=1.202
r651 130 132 153.972 $w=1.8e-07 $l=5.75e-07 $layer=POLY_cond $X=17.565 $Y=1.41
+ $X2=17.565 $Y2=1.985
r652 127 254 23.77 $w=1.5e-07 $l=2.07e-07 $layer=POLY_cond $X=17.54 $Y=0.995
+ $X2=17.54 $Y2=1.202
r653 127 129 139.78 $w=1.5e-07 $l=4.35e-07 $layer=POLY_cond $X=17.54 $Y=0.995
+ $X2=17.54 $Y2=0.56
r654 124 253 23.77 $w=1.5e-07 $l=2.07e-07 $layer=POLY_cond $X=17.12 $Y=0.995
+ $X2=17.12 $Y2=1.202
r655 124 126 139.78 $w=1.5e-07 $l=4.35e-07 $layer=POLY_cond $X=17.12 $Y=0.995
+ $X2=17.12 $Y2=0.56
r656 121 252 19.4219 $w=1.8e-07 $l=2.08e-07 $layer=POLY_cond $X=17.095 $Y=1.41
+ $X2=17.095 $Y2=1.202
r657 121 123 153.972 $w=1.8e-07 $l=5.75e-07 $layer=POLY_cond $X=17.095 $Y=1.41
+ $X2=17.095 $Y2=1.985
r658 118 250 19.4219 $w=1.8e-07 $l=2.08e-07 $layer=POLY_cond $X=16.625 $Y=1.41
+ $X2=16.625 $Y2=1.202
r659 118 120 153.972 $w=1.8e-07 $l=5.75e-07 $layer=POLY_cond $X=16.625 $Y=1.41
+ $X2=16.625 $Y2=1.985
r660 115 249 23.77 $w=1.5e-07 $l=2.07e-07 $layer=POLY_cond $X=16.6 $Y=0.995
+ $X2=16.6 $Y2=1.202
r661 115 117 139.78 $w=1.5e-07 $l=4.35e-07 $layer=POLY_cond $X=16.6 $Y=0.995
+ $X2=16.6 $Y2=0.56
r662 112 248 23.77 $w=1.5e-07 $l=2.07e-07 $layer=POLY_cond $X=16.18 $Y=0.995
+ $X2=16.18 $Y2=1.202
r663 112 114 139.78 $w=1.5e-07 $l=4.35e-07 $layer=POLY_cond $X=16.18 $Y=0.995
+ $X2=16.18 $Y2=0.56
r664 109 247 19.4219 $w=1.8e-07 $l=2.08e-07 $layer=POLY_cond $X=16.155 $Y=1.41
+ $X2=16.155 $Y2=1.202
r665 109 111 153.972 $w=1.8e-07 $l=5.75e-07 $layer=POLY_cond $X=16.155 $Y=1.41
+ $X2=16.155 $Y2=1.985
r666 106 246 19.4219 $w=1.8e-07 $l=2.08e-07 $layer=POLY_cond $X=15.685 $Y=1.41
+ $X2=15.685 $Y2=1.202
r667 106 108 153.972 $w=1.8e-07 $l=5.75e-07 $layer=POLY_cond $X=15.685 $Y=1.41
+ $X2=15.685 $Y2=1.985
r668 103 245 23.77 $w=1.5e-07 $l=2.07e-07 $layer=POLY_cond $X=15.66 $Y=0.995
+ $X2=15.66 $Y2=1.202
r669 103 105 139.78 $w=1.5e-07 $l=4.35e-07 $layer=POLY_cond $X=15.66 $Y=0.995
+ $X2=15.66 $Y2=0.56
r670 100 244 23.77 $w=1.5e-07 $l=2.07e-07 $layer=POLY_cond $X=15.24 $Y=0.995
+ $X2=15.24 $Y2=1.202
r671 100 102 139.78 $w=1.5e-07 $l=4.35e-07 $layer=POLY_cond $X=15.24 $Y=0.995
+ $X2=15.24 $Y2=0.56
r672 97 243 19.4219 $w=1.8e-07 $l=2.08e-07 $layer=POLY_cond $X=15.215 $Y=1.41
+ $X2=15.215 $Y2=1.202
r673 97 99 153.972 $w=1.8e-07 $l=5.75e-07 $layer=POLY_cond $X=15.215 $Y=1.41
+ $X2=15.215 $Y2=1.985
r674 94 242 19.4219 $w=1.8e-07 $l=2.08e-07 $layer=POLY_cond $X=14.745 $Y=1.41
+ $X2=14.745 $Y2=1.202
r675 94 96 153.972 $w=1.8e-07 $l=5.75e-07 $layer=POLY_cond $X=14.745 $Y=1.41
+ $X2=14.745 $Y2=1.985
r676 91 241 23.77 $w=1.5e-07 $l=2.07e-07 $layer=POLY_cond $X=14.72 $Y=0.995
+ $X2=14.72 $Y2=1.202
r677 91 93 139.78 $w=1.5e-07 $l=4.35e-07 $layer=POLY_cond $X=14.72 $Y=0.995
+ $X2=14.72 $Y2=0.56
r678 88 240 23.77 $w=1.5e-07 $l=2.07e-07 $layer=POLY_cond $X=14.3 $Y=0.995
+ $X2=14.3 $Y2=1.202
r679 88 90 139.78 $w=1.5e-07 $l=4.35e-07 $layer=POLY_cond $X=14.3 $Y=0.995
+ $X2=14.3 $Y2=0.56
r680 85 239 19.4219 $w=1.8e-07 $l=2.08e-07 $layer=POLY_cond $X=14.275 $Y=1.41
+ $X2=14.275 $Y2=1.202
r681 85 87 153.972 $w=1.8e-07 $l=5.75e-07 $layer=POLY_cond $X=14.275 $Y=1.41
+ $X2=14.275 $Y2=1.985
r682 82 238 19.4219 $w=1.8e-07 $l=2.08e-07 $layer=POLY_cond $X=13.805 $Y=1.41
+ $X2=13.805 $Y2=1.202
r683 82 84 153.972 $w=1.8e-07 $l=5.75e-07 $layer=POLY_cond $X=13.805 $Y=1.41
+ $X2=13.805 $Y2=1.985
r684 79 237 23.77 $w=1.5e-07 $l=2.07e-07 $layer=POLY_cond $X=13.78 $Y=0.995
+ $X2=13.78 $Y2=1.202
r685 79 81 139.78 $w=1.5e-07 $l=4.35e-07 $layer=POLY_cond $X=13.78 $Y=0.995
+ $X2=13.78 $Y2=0.56
r686 76 236 23.77 $w=1.5e-07 $l=2.07e-07 $layer=POLY_cond $X=13.36 $Y=0.995
+ $X2=13.36 $Y2=1.202
r687 76 78 139.78 $w=1.5e-07 $l=4.35e-07 $layer=POLY_cond $X=13.36 $Y=0.995
+ $X2=13.36 $Y2=0.56
r688 73 235 19.4219 $w=1.8e-07 $l=2.08e-07 $layer=POLY_cond $X=13.335 $Y=1.41
+ $X2=13.335 $Y2=1.202
r689 73 75 153.972 $w=1.8e-07 $l=5.75e-07 $layer=POLY_cond $X=13.335 $Y=1.41
+ $X2=13.335 $Y2=1.985
r690 70 234 19.4219 $w=1.8e-07 $l=2.08e-07 $layer=POLY_cond $X=12.865 $Y=1.41
+ $X2=12.865 $Y2=1.202
r691 70 72 153.972 $w=1.8e-07 $l=5.75e-07 $layer=POLY_cond $X=12.865 $Y=1.41
+ $X2=12.865 $Y2=1.985
r692 67 233 23.77 $w=1.5e-07 $l=2.07e-07 $layer=POLY_cond $X=12.84 $Y=0.995
+ $X2=12.84 $Y2=1.202
r693 67 69 139.78 $w=1.5e-07 $l=4.35e-07 $layer=POLY_cond $X=12.84 $Y=0.995
+ $X2=12.84 $Y2=0.56
r694 64 232 23.77 $w=1.5e-07 $l=2.07e-07 $layer=POLY_cond $X=12.42 $Y=0.995
+ $X2=12.42 $Y2=1.202
r695 64 66 139.78 $w=1.5e-07 $l=4.35e-07 $layer=POLY_cond $X=12.42 $Y=0.995
+ $X2=12.42 $Y2=0.56
r696 61 231 19.4219 $w=1.8e-07 $l=2.08e-07 $layer=POLY_cond $X=12.395 $Y=1.41
+ $X2=12.395 $Y2=1.202
r697 61 63 153.972 $w=1.8e-07 $l=5.75e-07 $layer=POLY_cond $X=12.395 $Y=1.41
+ $X2=12.395 $Y2=1.985
r698 58 230 19.4219 $w=1.8e-07 $l=2.08e-07 $layer=POLY_cond $X=11.925 $Y=1.41
+ $X2=11.925 $Y2=1.202
r699 58 60 153.972 $w=1.8e-07 $l=5.75e-07 $layer=POLY_cond $X=11.925 $Y=1.41
+ $X2=11.925 $Y2=1.985
r700 55 229 23.77 $w=1.5e-07 $l=2.07e-07 $layer=POLY_cond $X=11.9 $Y=0.995
+ $X2=11.9 $Y2=1.202
r701 55 57 139.78 $w=1.5e-07 $l=4.35e-07 $layer=POLY_cond $X=11.9 $Y=0.995
+ $X2=11.9 $Y2=0.56
r702 52 228 23.77 $w=1.5e-07 $l=2.07e-07 $layer=POLY_cond $X=11.48 $Y=0.995
+ $X2=11.48 $Y2=1.202
r703 52 54 139.78 $w=1.5e-07 $l=4.35e-07 $layer=POLY_cond $X=11.48 $Y=0.995
+ $X2=11.48 $Y2=0.56
r704 49 227 19.4219 $w=1.8e-07 $l=2.08e-07 $layer=POLY_cond $X=11.455 $Y=1.41
+ $X2=11.455 $Y2=1.202
r705 49 51 153.972 $w=1.8e-07 $l=5.75e-07 $layer=POLY_cond $X=11.455 $Y=1.41
+ $X2=11.455 $Y2=1.985
r706 46 226 19.4219 $w=1.8e-07 $l=2.08e-07 $layer=POLY_cond $X=10.985 $Y=1.41
+ $X2=10.985 $Y2=1.202
r707 46 48 153.972 $w=1.8e-07 $l=5.75e-07 $layer=POLY_cond $X=10.985 $Y=1.41
+ $X2=10.985 $Y2=1.985
r708 43 225 23.77 $w=1.5e-07 $l=2.07e-07 $layer=POLY_cond $X=10.96 $Y=0.995
+ $X2=10.96 $Y2=1.202
r709 43 45 139.78 $w=1.5e-07 $l=4.35e-07 $layer=POLY_cond $X=10.96 $Y=0.995
+ $X2=10.96 $Y2=0.56
r710 40 223 23.77 $w=1.5e-07 $l=2.07e-07 $layer=POLY_cond $X=10.54 $Y=0.995
+ $X2=10.54 $Y2=1.202
r711 40 42 139.78 $w=1.5e-07 $l=4.35e-07 $layer=POLY_cond $X=10.54 $Y=0.995
+ $X2=10.54 $Y2=0.56
r712 37 222 19.4219 $w=1.8e-07 $l=2.08e-07 $layer=POLY_cond $X=10.515 $Y=1.41
+ $X2=10.515 $Y2=1.202
r713 37 39 153.972 $w=1.8e-07 $l=5.75e-07 $layer=POLY_cond $X=10.515 $Y=1.41
+ $X2=10.515 $Y2=1.985
r714 12 211 400 $w=1.7e-07 $l=9.24662e-07 $layer=licon1_PDIFF $count=1 $X=9.615
+ $Y=1.485 $X2=9.76 $Y2=2.34
r715 12 168 400 $w=1.7e-07 $l=2.36643e-07 $layer=licon1_PDIFF $count=1 $X=9.615
+ $Y=1.485 $X2=9.76 $Y2=1.66
r716 11 159 300 $w=1.7e-07 $l=5.83009e-07 $layer=licon1_PDIFF $count=2 $X=8.675
+ $Y=1.485 $X2=8.82 $Y2=2
r717 10 199 400 $w=1.7e-07 $l=9.15369e-07 $layer=licon1_PDIFF $count=1 $X=7.755
+ $Y=1.485 $X2=7.88 $Y2=2.34
r718 10 151 400 $w=1.7e-07 $l=2.29129e-07 $layer=licon1_PDIFF $count=1 $X=7.755
+ $Y=1.485 $X2=7.88 $Y2=1.66