* File: sky130_fd_sc_hdll__mux2_12.pex.spice
* Created: Wed Sep  2 08:34:09 2020
* Program "Calibre xRC"
* Version "v2018.4_34.26"
* Nominal Temperature: 27C
* Circuit Temperature: 27C
* 
.subckt PM_SKY130_FD_SC_HDLL__MUX2_12%A1 1 3 4 6 7 9 10 12 13 15 16 18 19 21 22
+ 24 25 38 39
r88 39 40 3.23925 $w=3.72e-07 $l=2.5e-08 $layer=POLY_cond $X=1.88 $Y=1.202
+ $X2=1.905 $Y2=1.202
r89 37 39 16.8441 $w=3.72e-07 $l=1.3e-07 $layer=POLY_cond $X=1.75 $Y=1.202
+ $X2=1.88 $Y2=1.202
r90 37 38 72.64 $w=1.7e-07 $l=3.4e-07 $layer=licon1_POLY $count=2 $X=1.75
+ $Y=1.16 $X2=1.75 $Y2=1.16
r91 35 37 37.5753 $w=3.72e-07 $l=2.9e-07 $layer=POLY_cond $X=1.46 $Y=1.202
+ $X2=1.75 $Y2=1.202
r92 34 35 3.23925 $w=3.72e-07 $l=2.5e-08 $layer=POLY_cond $X=1.435 $Y=1.202
+ $X2=1.46 $Y2=1.202
r93 33 34 60.8979 $w=3.72e-07 $l=4.7e-07 $layer=POLY_cond $X=0.965 $Y=1.202
+ $X2=1.435 $Y2=1.202
r94 32 33 3.23925 $w=3.72e-07 $l=2.5e-08 $layer=POLY_cond $X=0.94 $Y=1.202
+ $X2=0.965 $Y2=1.202
r95 30 32 27.2097 $w=3.72e-07 $l=2.1e-07 $layer=POLY_cond $X=0.73 $Y=1.202
+ $X2=0.94 $Y2=1.202
r96 30 31 72.64 $w=1.7e-07 $l=3.4e-07 $layer=licon1_POLY $count=2 $X=0.73
+ $Y=1.16 $X2=0.73 $Y2=1.16
r97 28 30 27.2097 $w=3.72e-07 $l=2.1e-07 $layer=POLY_cond $X=0.52 $Y=1.202
+ $X2=0.73 $Y2=1.202
r98 27 28 3.23925 $w=3.72e-07 $l=2.5e-08 $layer=POLY_cond $X=0.495 $Y=1.202
+ $X2=0.52 $Y2=1.202
r99 25 38 27.6586 $w=2.48e-07 $l=6e-07 $layer=LI1_cond $X=1.15 $Y=1.2 $X2=1.75
+ $Y2=1.2
r100 25 31 19.361 $w=2.48e-07 $l=4.2e-07 $layer=LI1_cond $X=1.15 $Y=1.2 $X2=0.73
+ $Y2=1.2
r101 22 40 19.7411 $w=1.8e-07 $l=2.08e-07 $layer=POLY_cond $X=1.905 $Y=1.41
+ $X2=1.905 $Y2=1.202
r102 22 24 153.972 $w=1.8e-07 $l=5.75e-07 $layer=POLY_cond $X=1.905 $Y=1.41
+ $X2=1.905 $Y2=1.985
r103 19 39 24.0971 $w=1.5e-07 $l=2.07e-07 $layer=POLY_cond $X=1.88 $Y=0.995
+ $X2=1.88 $Y2=1.202
r104 19 21 139.78 $w=1.5e-07 $l=4.35e-07 $layer=POLY_cond $X=1.88 $Y=0.995
+ $X2=1.88 $Y2=0.56
r105 16 35 24.0971 $w=1.5e-07 $l=2.07e-07 $layer=POLY_cond $X=1.46 $Y=0.995
+ $X2=1.46 $Y2=1.202
r106 16 18 139.78 $w=1.5e-07 $l=4.35e-07 $layer=POLY_cond $X=1.46 $Y=0.995
+ $X2=1.46 $Y2=0.56
r107 13 34 19.7411 $w=1.8e-07 $l=2.08e-07 $layer=POLY_cond $X=1.435 $Y=1.41
+ $X2=1.435 $Y2=1.202
r108 13 15 153.972 $w=1.8e-07 $l=5.75e-07 $layer=POLY_cond $X=1.435 $Y=1.41
+ $X2=1.435 $Y2=1.985
r109 10 33 19.7411 $w=1.8e-07 $l=2.08e-07 $layer=POLY_cond $X=0.965 $Y=1.41
+ $X2=0.965 $Y2=1.202
r110 10 12 153.972 $w=1.8e-07 $l=5.75e-07 $layer=POLY_cond $X=0.965 $Y=1.41
+ $X2=0.965 $Y2=1.985
r111 7 32 24.0971 $w=1.5e-07 $l=2.07e-07 $layer=POLY_cond $X=0.94 $Y=0.995
+ $X2=0.94 $Y2=1.202
r112 7 9 139.78 $w=1.5e-07 $l=4.35e-07 $layer=POLY_cond $X=0.94 $Y=0.995
+ $X2=0.94 $Y2=0.56
r113 4 28 24.0971 $w=1.5e-07 $l=2.07e-07 $layer=POLY_cond $X=0.52 $Y=0.995
+ $X2=0.52 $Y2=1.202
r114 4 6 139.78 $w=1.5e-07 $l=4.35e-07 $layer=POLY_cond $X=0.52 $Y=0.995
+ $X2=0.52 $Y2=0.56
r115 1 27 19.7411 $w=1.8e-07 $l=2.08e-07 $layer=POLY_cond $X=0.495 $Y=1.41
+ $X2=0.495 $Y2=1.202
r116 1 3 153.972 $w=1.8e-07 $l=5.75e-07 $layer=POLY_cond $X=0.495 $Y=1.41
+ $X2=0.495 $Y2=1.985
.ends

.subckt PM_SKY130_FD_SC_HDLL__MUX2_12%S 1 3 4 6 7 9 10 12 13 15 16 18 19 21 22
+ 24 25 27 28 30 31 33 34 36 37 43 55
r124 55 56 3.25676 $w=3.7e-07 $l=2.5e-08 $layer=POLY_cond $X=5.22 $Y=1.202
+ $X2=5.245 $Y2=1.202
r125 54 55 54.7135 $w=3.7e-07 $l=4.2e-07 $layer=POLY_cond $X=4.8 $Y=1.202
+ $X2=5.22 $Y2=1.202
r126 53 54 3.25676 $w=3.7e-07 $l=2.5e-08 $layer=POLY_cond $X=4.775 $Y=1.202
+ $X2=4.8 $Y2=1.202
r127 52 53 61.227 $w=3.7e-07 $l=4.7e-07 $layer=POLY_cond $X=4.305 $Y=1.202
+ $X2=4.775 $Y2=1.202
r128 51 52 3.25676 $w=3.7e-07 $l=2.5e-08 $layer=POLY_cond $X=4.28 $Y=1.202
+ $X2=4.305 $Y2=1.202
r129 49 51 22.1459 $w=3.7e-07 $l=1.7e-07 $layer=POLY_cond $X=4.11 $Y=1.202
+ $X2=4.28 $Y2=1.202
r130 47 49 32.5676 $w=3.7e-07 $l=2.5e-07 $layer=POLY_cond $X=3.86 $Y=1.202
+ $X2=4.11 $Y2=1.202
r131 46 47 3.25676 $w=3.7e-07 $l=2.5e-08 $layer=POLY_cond $X=3.835 $Y=1.202
+ $X2=3.86 $Y2=1.202
r132 45 46 61.227 $w=3.7e-07 $l=4.7e-07 $layer=POLY_cond $X=3.365 $Y=1.202
+ $X2=3.835 $Y2=1.202
r133 44 45 3.25676 $w=3.7e-07 $l=2.5e-08 $layer=POLY_cond $X=3.34 $Y=1.202
+ $X2=3.365 $Y2=1.202
r134 43 49 72.64 $w=1.7e-07 $l=3.4e-07 $layer=licon1_POLY $count=2 $X=4.11
+ $Y=1.16 $X2=4.11 $Y2=1.16
r135 42 44 32.5676 $w=3.7e-07 $l=2.5e-07 $layer=POLY_cond $X=3.09 $Y=1.202
+ $X2=3.34 $Y2=1.202
r136 42 43 72.64 $w=1.7e-07 $l=3.4e-07 $layer=licon1_POLY $count=2 $X=3.09
+ $Y=1.16 $X2=3.09 $Y2=1.16
r137 40 42 22.1459 $w=3.7e-07 $l=1.7e-07 $layer=POLY_cond $X=2.92 $Y=1.202
+ $X2=3.09 $Y2=1.202
r138 39 40 3.25676 $w=3.7e-07 $l=2.5e-08 $layer=POLY_cond $X=2.895 $Y=1.202
+ $X2=2.92 $Y2=1.202
r139 37 43 0.271111 $w=1.348e-06 $l=3e-08 $layer=LI1_cond $X=3.6 $Y=1.19 $X2=3.6
+ $Y2=1.16
r140 34 56 19.6139 $w=1.8e-07 $l=2.08e-07 $layer=POLY_cond $X=5.245 $Y=1.41
+ $X2=5.245 $Y2=1.202
r141 34 36 153.972 $w=1.8e-07 $l=5.75e-07 $layer=POLY_cond $X=5.245 $Y=1.41
+ $X2=5.245 $Y2=1.985
r142 31 55 23.9667 $w=1.5e-07 $l=2.07e-07 $layer=POLY_cond $X=5.22 $Y=0.995
+ $X2=5.22 $Y2=1.202
r143 31 33 139.78 $w=1.5e-07 $l=4.35e-07 $layer=POLY_cond $X=5.22 $Y=0.995
+ $X2=5.22 $Y2=0.56
r144 28 54 23.9667 $w=1.5e-07 $l=2.07e-07 $layer=POLY_cond $X=4.8 $Y=0.995
+ $X2=4.8 $Y2=1.202
r145 28 30 139.78 $w=1.5e-07 $l=4.35e-07 $layer=POLY_cond $X=4.8 $Y=0.995
+ $X2=4.8 $Y2=0.56
r146 25 53 19.6139 $w=1.8e-07 $l=2.08e-07 $layer=POLY_cond $X=4.775 $Y=1.41
+ $X2=4.775 $Y2=1.202
r147 25 27 153.972 $w=1.8e-07 $l=5.75e-07 $layer=POLY_cond $X=4.775 $Y=1.41
+ $X2=4.775 $Y2=1.985
r148 22 52 19.6139 $w=1.8e-07 $l=2.08e-07 $layer=POLY_cond $X=4.305 $Y=1.41
+ $X2=4.305 $Y2=1.202
r149 22 24 153.972 $w=1.8e-07 $l=5.75e-07 $layer=POLY_cond $X=4.305 $Y=1.41
+ $X2=4.305 $Y2=1.985
r150 19 51 23.9667 $w=1.5e-07 $l=2.07e-07 $layer=POLY_cond $X=4.28 $Y=0.995
+ $X2=4.28 $Y2=1.202
r151 19 21 139.78 $w=1.5e-07 $l=4.35e-07 $layer=POLY_cond $X=4.28 $Y=0.995
+ $X2=4.28 $Y2=0.56
r152 16 47 23.9667 $w=1.5e-07 $l=2.07e-07 $layer=POLY_cond $X=3.86 $Y=0.995
+ $X2=3.86 $Y2=1.202
r153 16 18 139.78 $w=1.5e-07 $l=4.35e-07 $layer=POLY_cond $X=3.86 $Y=0.995
+ $X2=3.86 $Y2=0.56
r154 13 46 19.6139 $w=1.8e-07 $l=2.08e-07 $layer=POLY_cond $X=3.835 $Y=1.41
+ $X2=3.835 $Y2=1.202
r155 13 15 153.972 $w=1.8e-07 $l=5.75e-07 $layer=POLY_cond $X=3.835 $Y=1.41
+ $X2=3.835 $Y2=1.985
r156 10 45 19.6139 $w=1.8e-07 $l=2.08e-07 $layer=POLY_cond $X=3.365 $Y=1.41
+ $X2=3.365 $Y2=1.202
r157 10 12 153.972 $w=1.8e-07 $l=5.75e-07 $layer=POLY_cond $X=3.365 $Y=1.41
+ $X2=3.365 $Y2=1.985
r158 7 44 23.9667 $w=1.5e-07 $l=2.07e-07 $layer=POLY_cond $X=3.34 $Y=0.995
+ $X2=3.34 $Y2=1.202
r159 7 9 139.78 $w=1.5e-07 $l=4.35e-07 $layer=POLY_cond $X=3.34 $Y=0.995
+ $X2=3.34 $Y2=0.56
r160 4 40 23.9667 $w=1.5e-07 $l=2.07e-07 $layer=POLY_cond $X=2.92 $Y=0.995
+ $X2=2.92 $Y2=1.202
r161 4 6 139.78 $w=1.5e-07 $l=4.35e-07 $layer=POLY_cond $X=2.92 $Y=0.995
+ $X2=2.92 $Y2=0.56
r162 1 39 19.6139 $w=1.8e-07 $l=2.08e-07 $layer=POLY_cond $X=2.895 $Y=1.41
+ $X2=2.895 $Y2=1.202
r163 1 3 153.972 $w=1.8e-07 $l=5.75e-07 $layer=POLY_cond $X=2.895 $Y=1.41
+ $X2=2.895 $Y2=1.985
.ends

.subckt PM_SKY130_FD_SC_HDLL__MUX2_12%A_973_297# 1 2 7 9 10 12 13 15 16 18 19 21
+ 22 24 25 27 28 30 33 37 46 49 58
r122 58 59 3.23925 $w=3.72e-07 $l=2.5e-08 $layer=POLY_cond $X=7.1 $Y=1.202
+ $X2=7.125 $Y2=1.202
r123 55 56 3.23925 $w=3.72e-07 $l=2.5e-08 $layer=POLY_cond $X=6.655 $Y=1.202
+ $X2=6.68 $Y2=1.202
r124 54 55 60.8979 $w=3.72e-07 $l=4.7e-07 $layer=POLY_cond $X=6.185 $Y=1.202
+ $X2=6.655 $Y2=1.202
r125 53 54 3.23925 $w=3.72e-07 $l=2.5e-08 $layer=POLY_cond $X=6.16 $Y=1.202
+ $X2=6.185 $Y2=1.202
r126 50 51 3.23925 $w=3.72e-07 $l=2.5e-08 $layer=POLY_cond $X=5.715 $Y=1.202
+ $X2=5.74 $Y2=1.202
r127 47 58 22.0269 $w=3.72e-07 $l=1.7e-07 $layer=POLY_cond $X=6.93 $Y=1.202
+ $X2=7.1 $Y2=1.202
r128 47 56 32.3925 $w=3.72e-07 $l=2.5e-07 $layer=POLY_cond $X=6.93 $Y=1.202
+ $X2=6.68 $Y2=1.202
r129 46 47 72.64 $w=1.7e-07 $l=3.4e-07 $layer=licon1_POLY $count=2 $X=6.93
+ $Y=1.16 $X2=6.93 $Y2=1.16
r130 44 53 32.3925 $w=3.72e-07 $l=2.5e-07 $layer=POLY_cond $X=5.91 $Y=1.202
+ $X2=6.16 $Y2=1.202
r131 44 51 22.0269 $w=3.72e-07 $l=1.7e-07 $layer=POLY_cond $X=5.91 $Y=1.202
+ $X2=5.74 $Y2=1.202
r132 43 46 47.0197 $w=2.48e-07 $l=1.02e-06 $layer=LI1_cond $X=5.91 $Y=1.2
+ $X2=6.93 $Y2=1.2
r133 43 44 72.64 $w=1.7e-07 $l=3.4e-07 $layer=licon1_POLY $count=2 $X=5.91
+ $Y=1.16 $X2=5.91 $Y2=1.16
r134 41 49 2.3589 $w=2.5e-07 $l=1.65e-07 $layer=LI1_cond $X=5.175 $Y=1.2
+ $X2=5.01 $Y2=1.2
r135 41 43 33.8818 $w=2.48e-07 $l=7.35e-07 $layer=LI1_cond $X=5.175 $Y=1.2
+ $X2=5.91 $Y2=1.2
r136 37 39 23.7473 $w=3.28e-07 $l=6.8e-07 $layer=LI1_cond $X=5.01 $Y=1.66
+ $X2=5.01 $Y2=2.34
r137 35 49 4.07664 $w=3.3e-07 $l=1.25e-07 $layer=LI1_cond $X=5.01 $Y=1.325
+ $X2=5.01 $Y2=1.2
r138 35 37 11.699 $w=3.28e-07 $l=3.35e-07 $layer=LI1_cond $X=5.01 $Y=1.325
+ $X2=5.01 $Y2=1.66
r139 31 49 4.07664 $w=3.3e-07 $l=1.25e-07 $layer=LI1_cond $X=5.01 $Y=1.075
+ $X2=5.01 $Y2=1.2
r140 31 33 22.8742 $w=3.28e-07 $l=6.55e-07 $layer=LI1_cond $X=5.01 $Y=1.075
+ $X2=5.01 $Y2=0.42
r141 28 59 19.7411 $w=1.8e-07 $l=2.08e-07 $layer=POLY_cond $X=7.125 $Y=1.41
+ $X2=7.125 $Y2=1.202
r142 28 30 153.972 $w=1.8e-07 $l=5.75e-07 $layer=POLY_cond $X=7.125 $Y=1.41
+ $X2=7.125 $Y2=1.985
r143 25 58 24.0971 $w=1.5e-07 $l=2.07e-07 $layer=POLY_cond $X=7.1 $Y=0.995
+ $X2=7.1 $Y2=1.202
r144 25 27 139.78 $w=1.5e-07 $l=4.35e-07 $layer=POLY_cond $X=7.1 $Y=0.995
+ $X2=7.1 $Y2=0.56
r145 22 56 24.0971 $w=1.5e-07 $l=2.07e-07 $layer=POLY_cond $X=6.68 $Y=0.995
+ $X2=6.68 $Y2=1.202
r146 22 24 139.78 $w=1.5e-07 $l=4.35e-07 $layer=POLY_cond $X=6.68 $Y=0.995
+ $X2=6.68 $Y2=0.56
r147 19 55 19.7411 $w=1.8e-07 $l=2.08e-07 $layer=POLY_cond $X=6.655 $Y=1.41
+ $X2=6.655 $Y2=1.202
r148 19 21 153.972 $w=1.8e-07 $l=5.75e-07 $layer=POLY_cond $X=6.655 $Y=1.41
+ $X2=6.655 $Y2=1.985
r149 16 54 19.7411 $w=1.8e-07 $l=2.08e-07 $layer=POLY_cond $X=6.185 $Y=1.41
+ $X2=6.185 $Y2=1.202
r150 16 18 153.972 $w=1.8e-07 $l=5.75e-07 $layer=POLY_cond $X=6.185 $Y=1.41
+ $X2=6.185 $Y2=1.985
r151 13 53 24.0971 $w=1.5e-07 $l=2.07e-07 $layer=POLY_cond $X=6.16 $Y=0.995
+ $X2=6.16 $Y2=1.202
r152 13 15 139.78 $w=1.5e-07 $l=4.35e-07 $layer=POLY_cond $X=6.16 $Y=0.995
+ $X2=6.16 $Y2=0.56
r153 10 51 24.0971 $w=1.5e-07 $l=2.07e-07 $layer=POLY_cond $X=5.74 $Y=0.995
+ $X2=5.74 $Y2=1.202
r154 10 12 139.78 $w=1.5e-07 $l=4.35e-07 $layer=POLY_cond $X=5.74 $Y=0.995
+ $X2=5.74 $Y2=0.56
r155 7 50 19.7411 $w=1.8e-07 $l=2.08e-07 $layer=POLY_cond $X=5.715 $Y=1.41
+ $X2=5.715 $Y2=1.202
r156 7 9 153.972 $w=1.8e-07 $l=5.75e-07 $layer=POLY_cond $X=5.715 $Y=1.41
+ $X2=5.715 $Y2=1.985
r157 2 39 400 $w=1.7e-07 $l=9.24662e-07 $layer=licon1_PDIFF $count=1 $X=4.865
+ $Y=1.485 $X2=5.01 $Y2=2.34
r158 2 37 400 $w=1.7e-07 $l=2.36643e-07 $layer=licon1_PDIFF $count=1 $X=4.865
+ $Y=1.485 $X2=5.01 $Y2=1.66
r159 1 33 91 $w=1.7e-07 $l=2.43311e-07 $layer=licon1_NDIFF $count=2 $X=4.875
+ $Y=0.235 $X2=5.01 $Y2=0.42
.ends

.subckt PM_SKY130_FD_SC_HDLL__MUX2_12%A0 1 3 4 6 7 9 10 12 13 15 16 18 19 21 22
+ 24 25 38 39
r92 39 40 3.23925 $w=3.72e-07 $l=2.5e-08 $layer=POLY_cond $X=9.5 $Y=1.202
+ $X2=9.525 $Y2=1.202
r93 37 39 27.2097 $w=3.72e-07 $l=2.1e-07 $layer=POLY_cond $X=9.29 $Y=1.202
+ $X2=9.5 $Y2=1.202
r94 37 38 72.64 $w=1.7e-07 $l=3.4e-07 $layer=licon1_POLY $count=2 $X=9.29
+ $Y=1.16 $X2=9.29 $Y2=1.16
r95 35 37 27.2097 $w=3.72e-07 $l=2.1e-07 $layer=POLY_cond $X=9.08 $Y=1.202
+ $X2=9.29 $Y2=1.202
r96 34 35 3.23925 $w=3.72e-07 $l=2.5e-08 $layer=POLY_cond $X=9.055 $Y=1.202
+ $X2=9.08 $Y2=1.202
r97 33 34 60.8979 $w=3.72e-07 $l=4.7e-07 $layer=POLY_cond $X=8.585 $Y=1.202
+ $X2=9.055 $Y2=1.202
r98 32 33 3.23925 $w=3.72e-07 $l=2.5e-08 $layer=POLY_cond $X=8.56 $Y=1.202
+ $X2=8.585 $Y2=1.202
r99 30 32 37.5753 $w=3.72e-07 $l=2.9e-07 $layer=POLY_cond $X=8.27 $Y=1.202
+ $X2=8.56 $Y2=1.202
r100 30 31 72.64 $w=1.7e-07 $l=3.4e-07 $layer=licon1_POLY $count=2 $X=8.27
+ $Y=1.16 $X2=8.27 $Y2=1.16
r101 28 30 16.8441 $w=3.72e-07 $l=1.3e-07 $layer=POLY_cond $X=8.14 $Y=1.202
+ $X2=8.27 $Y2=1.202
r102 27 28 3.23925 $w=3.72e-07 $l=2.5e-08 $layer=POLY_cond $X=8.115 $Y=1.202
+ $X2=8.14 $Y2=1.202
r103 25 38 14.7513 $w=2.48e-07 $l=3.2e-07 $layer=LI1_cond $X=8.97 $Y=1.2
+ $X2=9.29 $Y2=1.2
r104 25 31 32.2684 $w=2.48e-07 $l=7e-07 $layer=LI1_cond $X=8.97 $Y=1.2 $X2=8.27
+ $Y2=1.2
r105 22 40 19.7411 $w=1.8e-07 $l=2.08e-07 $layer=POLY_cond $X=9.525 $Y=1.41
+ $X2=9.525 $Y2=1.202
r106 22 24 153.972 $w=1.8e-07 $l=5.75e-07 $layer=POLY_cond $X=9.525 $Y=1.41
+ $X2=9.525 $Y2=1.985
r107 19 39 24.0971 $w=1.5e-07 $l=2.07e-07 $layer=POLY_cond $X=9.5 $Y=0.995
+ $X2=9.5 $Y2=1.202
r108 19 21 139.78 $w=1.5e-07 $l=4.35e-07 $layer=POLY_cond $X=9.5 $Y=0.995
+ $X2=9.5 $Y2=0.56
r109 16 35 24.0971 $w=1.5e-07 $l=2.07e-07 $layer=POLY_cond $X=9.08 $Y=0.995
+ $X2=9.08 $Y2=1.202
r110 16 18 139.78 $w=1.5e-07 $l=4.35e-07 $layer=POLY_cond $X=9.08 $Y=0.995
+ $X2=9.08 $Y2=0.56
r111 13 34 19.7411 $w=1.8e-07 $l=2.08e-07 $layer=POLY_cond $X=9.055 $Y=1.41
+ $X2=9.055 $Y2=1.202
r112 13 15 153.972 $w=1.8e-07 $l=5.75e-07 $layer=POLY_cond $X=9.055 $Y=1.41
+ $X2=9.055 $Y2=1.985
r113 10 33 19.7411 $w=1.8e-07 $l=2.08e-07 $layer=POLY_cond $X=8.585 $Y=1.41
+ $X2=8.585 $Y2=1.202
r114 10 12 153.972 $w=1.8e-07 $l=5.75e-07 $layer=POLY_cond $X=8.585 $Y=1.41
+ $X2=8.585 $Y2=1.985
r115 7 32 24.0971 $w=1.5e-07 $l=2.07e-07 $layer=POLY_cond $X=8.56 $Y=0.995
+ $X2=8.56 $Y2=1.202
r116 7 9 139.78 $w=1.5e-07 $l=4.35e-07 $layer=POLY_cond $X=8.56 $Y=0.995
+ $X2=8.56 $Y2=0.56
r117 4 28 24.0971 $w=1.5e-07 $l=2.07e-07 $layer=POLY_cond $X=8.14 $Y=0.995
+ $X2=8.14 $Y2=1.202
r118 4 6 139.78 $w=1.5e-07 $l=4.35e-07 $layer=POLY_cond $X=8.14 $Y=0.995
+ $X2=8.14 $Y2=0.56
r119 1 27 19.7411 $w=1.8e-07 $l=2.08e-07 $layer=POLY_cond $X=8.115 $Y=1.41
+ $X2=8.115 $Y2=1.202
r120 1 3 153.972 $w=1.8e-07 $l=5.75e-07 $layer=POLY_cond $X=8.115 $Y=1.41
+ $X2=8.115 $Y2=1.985
.ends

.subckt PM_SKY130_FD_SC_HDLL__MUX2_12%A_27_47# 1 2 3 4 5 6 7 8 9 10 11 12 37 39
+ 40 42 43 45 46 48 49 51 52 54 55 57 58 60 61 63 64 66 67 69 70 72 73 75 76 78
+ 79 81 82 84 85 87 88 90 91 93 94 96 97 99 100 102 103 105 106 108 111 115 119
+ 121 123 125 127 131 135 137 139 142 144 150 153 156 161 162 163 165 166 173
+ 178 179 180 181 185 188 189 192 195 196 222
c480 195 0 1.96891e-19 $X=9.76 $Y=0.51
c481 189 0 1.96891e-19 $X=0.405 $Y=0.51
r482 222 223 3.28338 $w=3.67e-07 $l=2.5e-08 $layer=POLY_cond $X=15.66 $Y=1.202
+ $X2=15.685 $Y2=1.202
r483 221 222 55.1608 $w=3.67e-07 $l=4.2e-07 $layer=POLY_cond $X=15.24 $Y=1.202
+ $X2=15.66 $Y2=1.202
r484 220 221 3.28338 $w=3.67e-07 $l=2.5e-08 $layer=POLY_cond $X=15.215 $Y=1.202
+ $X2=15.24 $Y2=1.202
r485 219 220 61.7275 $w=3.67e-07 $l=4.7e-07 $layer=POLY_cond $X=14.745 $Y=1.202
+ $X2=15.215 $Y2=1.202
r486 218 219 3.28338 $w=3.67e-07 $l=2.5e-08 $layer=POLY_cond $X=14.72 $Y=1.202
+ $X2=14.745 $Y2=1.202
r487 215 216 3.28338 $w=3.67e-07 $l=2.5e-08 $layer=POLY_cond $X=14.275 $Y=1.202
+ $X2=14.3 $Y2=1.202
r488 214 215 61.7275 $w=3.67e-07 $l=4.7e-07 $layer=POLY_cond $X=13.805 $Y=1.202
+ $X2=14.275 $Y2=1.202
r489 213 214 3.28338 $w=3.67e-07 $l=2.5e-08 $layer=POLY_cond $X=13.78 $Y=1.202
+ $X2=13.805 $Y2=1.202
r490 212 213 55.1608 $w=3.67e-07 $l=4.2e-07 $layer=POLY_cond $X=13.36 $Y=1.202
+ $X2=13.78 $Y2=1.202
r491 211 212 3.28338 $w=3.67e-07 $l=2.5e-08 $layer=POLY_cond $X=13.335 $Y=1.202
+ $X2=13.36 $Y2=1.202
r492 210 211 61.7275 $w=3.67e-07 $l=4.7e-07 $layer=POLY_cond $X=12.865 $Y=1.202
+ $X2=13.335 $Y2=1.202
r493 209 210 3.28338 $w=3.67e-07 $l=2.5e-08 $layer=POLY_cond $X=12.84 $Y=1.202
+ $X2=12.865 $Y2=1.202
r494 208 209 55.1608 $w=3.67e-07 $l=4.2e-07 $layer=POLY_cond $X=12.42 $Y=1.202
+ $X2=12.84 $Y2=1.202
r495 207 208 3.28338 $w=3.67e-07 $l=2.5e-08 $layer=POLY_cond $X=12.395 $Y=1.202
+ $X2=12.42 $Y2=1.202
r496 206 207 61.7275 $w=3.67e-07 $l=4.7e-07 $layer=POLY_cond $X=11.925 $Y=1.202
+ $X2=12.395 $Y2=1.202
r497 205 206 3.28338 $w=3.67e-07 $l=2.5e-08 $layer=POLY_cond $X=11.9 $Y=1.202
+ $X2=11.925 $Y2=1.202
r498 204 205 55.1608 $w=3.67e-07 $l=4.2e-07 $layer=POLY_cond $X=11.48 $Y=1.202
+ $X2=11.9 $Y2=1.202
r499 203 204 3.28338 $w=3.67e-07 $l=2.5e-08 $layer=POLY_cond $X=11.455 $Y=1.202
+ $X2=11.48 $Y2=1.202
r500 202 203 61.7275 $w=3.67e-07 $l=4.7e-07 $layer=POLY_cond $X=10.985 $Y=1.202
+ $X2=11.455 $Y2=1.202
r501 201 202 3.28338 $w=3.67e-07 $l=2.5e-08 $layer=POLY_cond $X=10.96 $Y=1.202
+ $X2=10.985 $Y2=1.202
r502 198 199 3.28338 $w=3.67e-07 $l=2.5e-08 $layer=POLY_cond $X=10.515 $Y=1.202
+ $X2=10.54 $Y2=1.202
r503 195 196 9.3 $w=1.7e-07 $l=1.7e-07 $layer=mcon $count=1 $X=9.76 $Y=0.51
+ $X2=9.76 $Y2=0.51
r504 192 226 44.177 $w=2.98e-07 $l=1.15e-06 $layer=LI1_cond $X=0.245 $Y=0.51
+ $X2=0.245 $Y2=1.66
r505 191 192 9.3 $w=1.7e-07 $l=1.7e-07 $layer=mcon $count=1 $X=0.26 $Y=0.51
+ $X2=0.26 $Y2=0.51
r506 189 191 0.115467 $w=2.3e-07 $l=1.45e-07 $layer=MET1_cond $X=0.405 $Y=0.51
+ $X2=0.26 $Y2=0.51
r507 188 195 0.115467 $w=2.3e-07 $l=1.45e-07 $layer=MET1_cond $X=9.615 $Y=0.51
+ $X2=9.76 $Y2=0.51
r508 188 189 11.3985 $w=1.4e-07 $l=9.21e-06 $layer=MET1_cond $X=9.615 $Y=0.51
+ $X2=0.405 $Y2=0.51
r509 184 196 21.7043 $w=2.98e-07 $l=5.65e-07 $layer=LI1_cond $X=9.775 $Y=1.075
+ $X2=9.775 $Y2=0.51
r510 184 185 4.4274 $w=3e-07 $l=1.25e-07 $layer=LI1_cond $X=9.775 $Y=1.075
+ $X2=9.775 $Y2=1.2
r511 181 196 3.26526 $w=2.98e-07 $l=8.5e-08 $layer=LI1_cond $X=9.775 $Y=0.425
+ $X2=9.775 $Y2=0.51
r512 181 183 2.71916 $w=3e-07 $l=8.5e-08 $layer=LI1_cond $X=9.775 $Y=0.425
+ $X2=9.775 $Y2=0.34
r513 177 179 7.32169 $w=2.88e-07 $l=1.35e-07 $layer=LI1_cond $X=8.82 $Y=0.4
+ $X2=8.955 $Y2=0.4
r514 177 178 7.32169 $w=2.88e-07 $l=1.35e-07 $layer=LI1_cond $X=8.82 $Y=0.4
+ $X2=8.685 $Y2=0.4
r515 173 178 43.7112 $w=1.68e-07 $l=6.7e-07 $layer=LI1_cond $X=8.015 $Y=0.34
+ $X2=8.685 $Y2=0.34
r516 171 173 7.32568 $w=2.93e-07 $l=1.35e-07 $layer=LI1_cond $X=7.88 $Y=0.402
+ $X2=8.015 $Y2=0.402
r517 165 166 7.32568 $w=2.93e-07 $l=1.35e-07 $layer=LI1_cond $X=2.14 $Y=0.402
+ $X2=2.005 $Y2=0.402
r518 162 166 43.7112 $w=1.68e-07 $l=6.7e-07 $layer=LI1_cond $X=1.335 $Y=0.34
+ $X2=2.005 $Y2=0.34
r519 160 162 7.32169 $w=2.88e-07 $l=1.35e-07 $layer=LI1_cond $X=1.2 $Y=0.4
+ $X2=1.335 $Y2=0.4
r520 160 161 7.32169 $w=2.88e-07 $l=1.35e-07 $layer=LI1_cond $X=1.2 $Y=0.4
+ $X2=1.065 $Y2=0.4
r521 156 226 24.3934 $w=2.98e-07 $l=6.35e-07 $layer=LI1_cond $X=0.245 $Y=2.295
+ $X2=0.245 $Y2=1.66
r522 156 158 2.71916 $w=3e-07 $l=8.5e-08 $layer=LI1_cond $X=0.245 $Y=2.295
+ $X2=0.245 $Y2=2.38
r523 153 192 3.26526 $w=2.98e-07 $l=8.5e-08 $layer=LI1_cond $X=0.245 $Y=0.425
+ $X2=0.245 $Y2=0.51
r524 153 155 2.71916 $w=3e-07 $l=8.5e-08 $layer=LI1_cond $X=0.245 $Y=0.425
+ $X2=0.245 $Y2=0.34
r525 151 218 7.88011 $w=3.67e-07 $l=6e-08 $layer=POLY_cond $X=14.66 $Y=1.202
+ $X2=14.72 $Y2=1.202
r526 151 216 47.2807 $w=3.67e-07 $l=3.6e-07 $layer=POLY_cond $X=14.66 $Y=1.202
+ $X2=14.3 $Y2=1.202
r527 150 151 22.3508 $w=1.7e-07 $l=1.105e-06 $layer=licon1_POLY $count=6
+ $X=14.66 $Y=1.16 $X2=14.66 $Y2=1.16
r528 148 201 49.9074 $w=3.67e-07 $l=3.8e-07 $layer=POLY_cond $X=10.58 $Y=1.202
+ $X2=10.96 $Y2=1.202
r529 148 199 5.25341 $w=3.67e-07 $l=4e-08 $layer=POLY_cond $X=10.58 $Y=1.202
+ $X2=10.54 $Y2=1.202
r530 147 150 188.079 $w=2.48e-07 $l=4.08e-06 $layer=LI1_cond $X=10.58 $Y=1.2
+ $X2=14.66 $Y2=1.2
r531 147 148 22.3508 $w=1.7e-07 $l=1.105e-06 $layer=licon1_POLY $count=6
+ $X=10.58 $Y=1.16 $X2=10.58 $Y2=1.16
r532 145 185 2.0066 $w=2.5e-07 $l=1.5e-07 $layer=LI1_cond $X=9.925 $Y=1.2
+ $X2=9.775 $Y2=1.2
r533 145 147 30.194 $w=2.48e-07 $l=6.55e-07 $layer=LI1_cond $X=9.925 $Y=1.2
+ $X2=10.58 $Y2=1.2
r534 142 187 2.71916 $w=3e-07 $l=8.5e-08 $layer=LI1_cond $X=9.775 $Y=2.295
+ $X2=9.775 $Y2=2.38
r535 142 144 24.3934 $w=2.98e-07 $l=6.35e-07 $layer=LI1_cond $X=9.775 $Y=2.295
+ $X2=9.775 $Y2=1.66
r536 141 185 4.4274 $w=3e-07 $l=1.25e-07 $layer=LI1_cond $X=9.775 $Y=1.325
+ $X2=9.775 $Y2=1.2
r537 141 144 12.8689 $w=2.98e-07 $l=3.35e-07 $layer=LI1_cond $X=9.775 $Y=1.325
+ $X2=9.775 $Y2=1.66
r538 140 180 7.44763 $w=1.7e-07 $l=1.35e-07 $layer=LI1_cond $X=8.955 $Y=2.38
+ $X2=8.82 $Y2=2.38
r539 139 187 4.79851 $w=1.7e-07 $l=1.5e-07 $layer=LI1_cond $X=9.625 $Y=2.38
+ $X2=9.775 $Y2=2.38
r540 139 140 43.7112 $w=1.68e-07 $l=6.7e-07 $layer=LI1_cond $X=9.625 $Y=2.38
+ $X2=8.955 $Y2=2.38
r541 137 183 4.79851 $w=1.7e-07 $l=1.5e-07 $layer=LI1_cond $X=9.625 $Y=0.34
+ $X2=9.775 $Y2=0.34
r542 137 179 43.7112 $w=1.68e-07 $l=6.7e-07 $layer=LI1_cond $X=9.625 $Y=0.34
+ $X2=8.955 $Y2=0.34
r543 133 180 0.256868 $w=2.7e-07 $l=8.5e-08 $layer=LI1_cond $X=8.82 $Y=2.295
+ $X2=8.82 $Y2=2.38
r544 133 135 12.5915 $w=2.68e-07 $l=2.95e-07 $layer=LI1_cond $X=8.82 $Y=2.295
+ $X2=8.82 $Y2=2
r545 132 175 4.79851 $w=1.7e-07 $l=1.5e-07 $layer=LI1_cond $X=8.015 $Y=2.38
+ $X2=7.865 $Y2=2.38
r546 131 180 7.44763 $w=1.7e-07 $l=1.35e-07 $layer=LI1_cond $X=8.685 $Y=2.38
+ $X2=8.82 $Y2=2.38
r547 131 132 43.7112 $w=1.68e-07 $l=6.7e-07 $layer=LI1_cond $X=8.685 $Y=2.38
+ $X2=8.015 $Y2=2.38
r548 125 175 2.71916 $w=3e-07 $l=8.5e-08 $layer=LI1_cond $X=7.865 $Y=2.295
+ $X2=7.865 $Y2=2.38
r549 125 127 24.3934 $w=2.98e-07 $l=6.35e-07 $layer=LI1_cond $X=7.865 $Y=2.295
+ $X2=7.865 $Y2=1.66
r550 121 169 2.71916 $w=3e-07 $l=8.5e-08 $layer=LI1_cond $X=2.155 $Y=2.295
+ $X2=2.155 $Y2=2.38
r551 121 123 24.3934 $w=2.98e-07 $l=6.35e-07 $layer=LI1_cond $X=2.155 $Y=2.295
+ $X2=2.155 $Y2=1.66
r552 120 163 7.44763 $w=1.7e-07 $l=1.35e-07 $layer=LI1_cond $X=1.335 $Y=2.38
+ $X2=1.2 $Y2=2.38
r553 119 169 4.79851 $w=1.7e-07 $l=1.5e-07 $layer=LI1_cond $X=2.005 $Y=2.38
+ $X2=2.155 $Y2=2.38
r554 119 120 43.7112 $w=1.68e-07 $l=6.7e-07 $layer=LI1_cond $X=2.005 $Y=2.38
+ $X2=1.335 $Y2=2.38
r555 113 163 0.256868 $w=2.7e-07 $l=8.5e-08 $layer=LI1_cond $X=1.2 $Y=2.295
+ $X2=1.2 $Y2=2.38
r556 113 115 12.5915 $w=2.68e-07 $l=2.95e-07 $layer=LI1_cond $X=1.2 $Y=2.295
+ $X2=1.2 $Y2=2
r557 112 158 4.79851 $w=1.7e-07 $l=1.5e-07 $layer=LI1_cond $X=0.395 $Y=2.38
+ $X2=0.245 $Y2=2.38
r558 111 163 7.44763 $w=1.7e-07 $l=1.35e-07 $layer=LI1_cond $X=1.065 $Y=2.38
+ $X2=1.2 $Y2=2.38
r559 111 112 43.7112 $w=1.68e-07 $l=6.7e-07 $layer=LI1_cond $X=1.065 $Y=2.38
+ $X2=0.395 $Y2=2.38
r560 110 155 4.79851 $w=1.7e-07 $l=1.5e-07 $layer=LI1_cond $X=0.395 $Y=0.34
+ $X2=0.245 $Y2=0.34
r561 110 161 43.7112 $w=1.68e-07 $l=6.7e-07 $layer=LI1_cond $X=0.395 $Y=0.34
+ $X2=1.065 $Y2=0.34
r562 106 223 19.4219 $w=1.8e-07 $l=2.08e-07 $layer=POLY_cond $X=15.685 $Y=1.41
+ $X2=15.685 $Y2=1.202
r563 106 108 153.972 $w=1.8e-07 $l=5.75e-07 $layer=POLY_cond $X=15.685 $Y=1.41
+ $X2=15.685 $Y2=1.985
r564 103 222 23.77 $w=1.5e-07 $l=2.07e-07 $layer=POLY_cond $X=15.66 $Y=0.995
+ $X2=15.66 $Y2=1.202
r565 103 105 139.78 $w=1.5e-07 $l=4.35e-07 $layer=POLY_cond $X=15.66 $Y=0.995
+ $X2=15.66 $Y2=0.56
r566 100 221 23.77 $w=1.5e-07 $l=2.07e-07 $layer=POLY_cond $X=15.24 $Y=0.995
+ $X2=15.24 $Y2=1.202
r567 100 102 139.78 $w=1.5e-07 $l=4.35e-07 $layer=POLY_cond $X=15.24 $Y=0.995
+ $X2=15.24 $Y2=0.56
r568 97 220 19.4219 $w=1.8e-07 $l=2.08e-07 $layer=POLY_cond $X=15.215 $Y=1.41
+ $X2=15.215 $Y2=1.202
r569 97 99 153.972 $w=1.8e-07 $l=5.75e-07 $layer=POLY_cond $X=15.215 $Y=1.41
+ $X2=15.215 $Y2=1.985
r570 94 219 19.4219 $w=1.8e-07 $l=2.08e-07 $layer=POLY_cond $X=14.745 $Y=1.41
+ $X2=14.745 $Y2=1.202
r571 94 96 153.972 $w=1.8e-07 $l=5.75e-07 $layer=POLY_cond $X=14.745 $Y=1.41
+ $X2=14.745 $Y2=1.985
r572 91 218 23.77 $w=1.5e-07 $l=2.07e-07 $layer=POLY_cond $X=14.72 $Y=0.995
+ $X2=14.72 $Y2=1.202
r573 91 93 139.78 $w=1.5e-07 $l=4.35e-07 $layer=POLY_cond $X=14.72 $Y=0.995
+ $X2=14.72 $Y2=0.56
r574 88 216 23.77 $w=1.5e-07 $l=2.07e-07 $layer=POLY_cond $X=14.3 $Y=0.995
+ $X2=14.3 $Y2=1.202
r575 88 90 139.78 $w=1.5e-07 $l=4.35e-07 $layer=POLY_cond $X=14.3 $Y=0.995
+ $X2=14.3 $Y2=0.56
r576 85 215 19.4219 $w=1.8e-07 $l=2.08e-07 $layer=POLY_cond $X=14.275 $Y=1.41
+ $X2=14.275 $Y2=1.202
r577 85 87 153.972 $w=1.8e-07 $l=5.75e-07 $layer=POLY_cond $X=14.275 $Y=1.41
+ $X2=14.275 $Y2=1.985
r578 82 214 19.4219 $w=1.8e-07 $l=2.08e-07 $layer=POLY_cond $X=13.805 $Y=1.41
+ $X2=13.805 $Y2=1.202
r579 82 84 153.972 $w=1.8e-07 $l=5.75e-07 $layer=POLY_cond $X=13.805 $Y=1.41
+ $X2=13.805 $Y2=1.985
r580 79 213 23.77 $w=1.5e-07 $l=2.07e-07 $layer=POLY_cond $X=13.78 $Y=0.995
+ $X2=13.78 $Y2=1.202
r581 79 81 139.78 $w=1.5e-07 $l=4.35e-07 $layer=POLY_cond $X=13.78 $Y=0.995
+ $X2=13.78 $Y2=0.56
r582 76 212 23.77 $w=1.5e-07 $l=2.07e-07 $layer=POLY_cond $X=13.36 $Y=0.995
+ $X2=13.36 $Y2=1.202
r583 76 78 139.78 $w=1.5e-07 $l=4.35e-07 $layer=POLY_cond $X=13.36 $Y=0.995
+ $X2=13.36 $Y2=0.56
r584 73 211 19.4219 $w=1.8e-07 $l=2.08e-07 $layer=POLY_cond $X=13.335 $Y=1.41
+ $X2=13.335 $Y2=1.202
r585 73 75 153.972 $w=1.8e-07 $l=5.75e-07 $layer=POLY_cond $X=13.335 $Y=1.41
+ $X2=13.335 $Y2=1.985
r586 70 210 19.4219 $w=1.8e-07 $l=2.08e-07 $layer=POLY_cond $X=12.865 $Y=1.41
+ $X2=12.865 $Y2=1.202
r587 70 72 153.972 $w=1.8e-07 $l=5.75e-07 $layer=POLY_cond $X=12.865 $Y=1.41
+ $X2=12.865 $Y2=1.985
r588 67 209 23.77 $w=1.5e-07 $l=2.07e-07 $layer=POLY_cond $X=12.84 $Y=0.995
+ $X2=12.84 $Y2=1.202
r589 67 69 139.78 $w=1.5e-07 $l=4.35e-07 $layer=POLY_cond $X=12.84 $Y=0.995
+ $X2=12.84 $Y2=0.56
r590 64 208 23.77 $w=1.5e-07 $l=2.07e-07 $layer=POLY_cond $X=12.42 $Y=0.995
+ $X2=12.42 $Y2=1.202
r591 64 66 139.78 $w=1.5e-07 $l=4.35e-07 $layer=POLY_cond $X=12.42 $Y=0.995
+ $X2=12.42 $Y2=0.56
r592 61 207 19.4219 $w=1.8e-07 $l=2.08e-07 $layer=POLY_cond $X=12.395 $Y=1.41
+ $X2=12.395 $Y2=1.202
r593 61 63 153.972 $w=1.8e-07 $l=5.75e-07 $layer=POLY_cond $X=12.395 $Y=1.41
+ $X2=12.395 $Y2=1.985
r594 58 206 19.4219 $w=1.8e-07 $l=2.08e-07 $layer=POLY_cond $X=11.925 $Y=1.41
+ $X2=11.925 $Y2=1.202
r595 58 60 153.972 $w=1.8e-07 $l=5.75e-07 $layer=POLY_cond $X=11.925 $Y=1.41
+ $X2=11.925 $Y2=1.985
r596 55 205 23.77 $w=1.5e-07 $l=2.07e-07 $layer=POLY_cond $X=11.9 $Y=0.995
+ $X2=11.9 $Y2=1.202
r597 55 57 139.78 $w=1.5e-07 $l=4.35e-07 $layer=POLY_cond $X=11.9 $Y=0.995
+ $X2=11.9 $Y2=0.56
r598 52 204 23.77 $w=1.5e-07 $l=2.07e-07 $layer=POLY_cond $X=11.48 $Y=0.995
+ $X2=11.48 $Y2=1.202
r599 52 54 139.78 $w=1.5e-07 $l=4.35e-07 $layer=POLY_cond $X=11.48 $Y=0.995
+ $X2=11.48 $Y2=0.56
r600 49 203 19.4219 $w=1.8e-07 $l=2.08e-07 $layer=POLY_cond $X=11.455 $Y=1.41
+ $X2=11.455 $Y2=1.202
r601 49 51 153.972 $w=1.8e-07 $l=5.75e-07 $layer=POLY_cond $X=11.455 $Y=1.41
+ $X2=11.455 $Y2=1.985
r602 46 202 19.4219 $w=1.8e-07 $l=2.08e-07 $layer=POLY_cond $X=10.985 $Y=1.41
+ $X2=10.985 $Y2=1.202
r603 46 48 153.972 $w=1.8e-07 $l=5.75e-07 $layer=POLY_cond $X=10.985 $Y=1.41
+ $X2=10.985 $Y2=1.985
r604 43 201 23.77 $w=1.5e-07 $l=2.07e-07 $layer=POLY_cond $X=10.96 $Y=0.995
+ $X2=10.96 $Y2=1.202
r605 43 45 139.78 $w=1.5e-07 $l=4.35e-07 $layer=POLY_cond $X=10.96 $Y=0.995
+ $X2=10.96 $Y2=0.56
r606 40 199 23.77 $w=1.5e-07 $l=2.07e-07 $layer=POLY_cond $X=10.54 $Y=0.995
+ $X2=10.54 $Y2=1.202
r607 40 42 139.78 $w=1.5e-07 $l=4.35e-07 $layer=POLY_cond $X=10.54 $Y=0.995
+ $X2=10.54 $Y2=0.56
r608 37 198 19.4219 $w=1.8e-07 $l=2.08e-07 $layer=POLY_cond $X=10.515 $Y=1.41
+ $X2=10.515 $Y2=1.202
r609 37 39 153.972 $w=1.8e-07 $l=5.75e-07 $layer=POLY_cond $X=10.515 $Y=1.41
+ $X2=10.515 $Y2=1.985
r610 12 187 400 $w=1.7e-07 $l=9.24662e-07 $layer=licon1_PDIFF $count=1 $X=9.615
+ $Y=1.485 $X2=9.76 $Y2=2.34
r611 12 144 400 $w=1.7e-07 $l=2.36643e-07 $layer=licon1_PDIFF $count=1 $X=9.615
+ $Y=1.485 $X2=9.76 $Y2=1.66
r612 11 135 300 $w=1.7e-07 $l=5.83009e-07 $layer=licon1_PDIFF $count=2 $X=8.675
+ $Y=1.485 $X2=8.82 $Y2=2
r613 10 175 400 $w=1.7e-07 $l=9.15369e-07 $layer=licon1_PDIFF $count=1 $X=7.755
+ $Y=1.485 $X2=7.88 $Y2=2.34
r614 10 127 400 $w=1.7e-07 $l=2.29129e-07 $layer=licon1_PDIFF $count=1 $X=7.755
+ $Y=1.485 $X2=7.88 $Y2=1.66
r615 9 169 400 $w=1.7e-07 $l=9.24662e-07 $layer=licon1_PDIFF $count=1 $X=1.995
+ $Y=1.485 $X2=2.14 $Y2=2.34
r616 9 123 400 $w=1.7e-07 $l=2.36643e-07 $layer=licon1_PDIFF $count=1 $X=1.995
+ $Y=1.485 $X2=2.14 $Y2=1.66
r617 8 115 300 $w=1.7e-07 $l=5.83009e-07 $layer=licon1_PDIFF $count=2 $X=1.055
+ $Y=1.485 $X2=1.2 $Y2=2
r618 7 226 400 $w=1.7e-07 $l=2.29129e-07 $layer=licon1_PDIFF $count=1 $X=0.135
+ $Y=1.485 $X2=0.26 $Y2=1.66
r619 7 158 400 $w=1.7e-07 $l=9.15369e-07 $layer=licon1_PDIFF $count=1 $X=0.135
+ $Y=1.485 $X2=0.26 $Y2=2.34
r620 6 183 91 $w=1.7e-07 $l=2.5446e-07 $layer=licon1_NDIFF $count=2 $X=9.575
+ $Y=0.235 $X2=9.76 $Y2=0.4
r621 5 177 182 $w=1.7e-07 $l=2.47083e-07 $layer=licon1_NDIFF $count=1 $X=8.635
+ $Y=0.235 $X2=8.82 $Y2=0.38
r622 4 171 182 $w=1.7e-07 $l=2.03101e-07 $layer=licon1_NDIFF $count=1 $X=7.755
+ $Y=0.235 $X2=7.88 $Y2=0.385
r623 3 165 182 $w=1.7e-07 $l=2.48948e-07 $layer=licon1_NDIFF $count=1 $X=1.955
+ $Y=0.235 $X2=2.14 $Y2=0.385
r624 2 160 182 $w=1.7e-07 $l=2.47083e-07 $layer=licon1_NDIFF $count=1 $X=1.015
+ $Y=0.235 $X2=1.2 $Y2=0.38
r625 1 155 91 $w=1.7e-07 $l=2.18746e-07 $layer=licon1_NDIFF $count=2 $X=0.135
+ $Y=0.235 $X2=0.26 $Y2=0.4
.ends

.subckt PM_SKY130_FD_SC_HDLL__MUX2_12%A_117_297# 1 2 3 4 13 15 17 20 23 26 29 30
+ 31 32 33 34 37 41 44 46 47
r131 47 59 16.4136 $w=3.28e-07 $l=4.7e-07 $layer=LI1_cond $X=6.89 $Y=1.87
+ $X2=6.89 $Y2=2.34
r132 46 47 9.3 $w=1.7e-07 $l=1.7e-07 $layer=mcon $count=1 $X=6.89 $Y=1.87
+ $X2=6.89 $Y2=1.87
r133 44 55 16.4136 $w=3.28e-07 $l=4.7e-07 $layer=LI1_cond $X=5.95 $Y=1.87
+ $X2=5.95 $Y2=2.34
r134 43 44 9.3 $w=1.7e-07 $l=1.7e-07 $layer=mcon $count=1 $X=5.95 $Y=1.87
+ $X2=5.95 $Y2=1.87
r135 40 41 9.3 $w=1.7e-07 $l=1.7e-07 $layer=mcon $count=1 $X=1.67 $Y=1.87
+ $X2=1.67 $Y2=1.87
r136 36 37 9.3 $w=1.7e-07 $l=1.7e-07 $layer=mcon $count=1 $X=0.73 $Y=1.87
+ $X2=0.73 $Y2=1.87
r137 34 43 0.115467 $w=2.3e-07 $l=1.45e-07 $layer=MET1_cond $X=6.095 $Y=1.87
+ $X2=5.95 $Y2=1.87
r138 33 46 0.115467 $w=2.3e-07 $l=1.45e-07 $layer=MET1_cond $X=6.745 $Y=1.87
+ $X2=6.89 $Y2=1.87
r139 33 34 0.804454 $w=1.4e-07 $l=6.5e-07 $layer=MET1_cond $X=6.745 $Y=1.87
+ $X2=6.095 $Y2=1.87
r140 32 40 0.115467 $w=2.3e-07 $l=1.45e-07 $layer=MET1_cond $X=1.815 $Y=1.87
+ $X2=1.67 $Y2=1.87
r141 31 43 0.115467 $w=2.3e-07 $l=1.45e-07 $layer=MET1_cond $X=5.805 $Y=1.87
+ $X2=5.95 $Y2=1.87
r142 31 32 4.93811 $w=1.4e-07 $l=3.99e-06 $layer=MET1_cond $X=5.805 $Y=1.87
+ $X2=1.815 $Y2=1.87
r143 30 36 0.115467 $w=2.3e-07 $l=1.45e-07 $layer=MET1_cond $X=0.875 $Y=1.87
+ $X2=0.73 $Y2=1.87