* File: sky130_fd_sc_hdll__muxb4to1_2.pex.spice
* Created: Thu Aug 27 19:11:52 2020
* Program "Calibre xRC"
* Version "v2018.4_34.26"
* Nominal Temperature: 27C
* Circuit Temperature: 27C
* 
.subckt PM_SKY130_FD_SC_HDLL__MUXB4TO1_2%D[0] 3 7 11 15 17 27 29
r47 28 29 5.55434 $w=2.7e-07 $l=2.5e-08 $layer=POLY_cond $X=0.94 $Y=1.16
+ $X2=0.965 $Y2=1.16
r48 26 28 42.213 $w=2.7e-07 $l=1.9e-07 $layer=POLY_cond $X=0.75 $Y=1.16 $X2=0.94
+ $Y2=1.16
r49 26 27 145.28 $w=1.7e-07 $l=1.7e-07 $layer=licon1_POLY $count=1 $X=0.75
+ $Y=1.16 $X2=0.75 $Y2=1.16
r50 24 26 51.1 $w=2.7e-07 $l=2.3e-07 $layer=POLY_cond $X=0.52 $Y=1.16 $X2=0.75
+ $Y2=1.16
r51 23 24 5.55434 $w=2.7e-07 $l=2.5e-08 $layer=POLY_cond $X=0.495 $Y=1.16
+ $X2=0.52 $Y2=1.16
r52 21 27 14.5122 $w=2.68e-07 $l=3.4e-07 $layer=LI1_cond $X=0.41 $Y=1.19
+ $X2=0.75 $Y2=1.19
r53 20 23 18.8848 $w=2.7e-07 $l=8.5e-08 $layer=POLY_cond $X=0.41 $Y=1.16
+ $X2=0.495 $Y2=1.16
r54 20 21 145.28 $w=1.7e-07 $l=1.7e-07 $layer=licon1_POLY $count=1 $X=0.41
+ $Y=1.16 $X2=0.41 $Y2=1.16
r55 17 21 7.68295 $w=2.68e-07 $l=1.8e-07 $layer=LI1_cond $X=0.23 $Y=1.19
+ $X2=0.41 $Y2=1.19
r56 13 29 12.2893 $w=1.8e-07 $l=1.35e-07 $layer=POLY_cond $X=0.965 $Y=1.295
+ $X2=0.965 $Y2=1.16
r57 13 15 268.21 $w=1.8e-07 $l=6.9e-07 $layer=POLY_cond $X=0.965 $Y=1.295
+ $X2=0.965 $Y2=1.985
r58 9 28 16.5046 $w=1.5e-07 $l=1.35e-07 $layer=POLY_cond $X=0.94 $Y=1.025
+ $X2=0.94 $Y2=1.16
r59 9 11 238.436 $w=1.5e-07 $l=4.65e-07 $layer=POLY_cond $X=0.94 $Y=1.025
+ $X2=0.94 $Y2=0.56
r60 5 24 16.5046 $w=1.5e-07 $l=1.35e-07 $layer=POLY_cond $X=0.52 $Y=1.025
+ $X2=0.52 $Y2=1.16
r61 5 7 238.436 $w=1.5e-07 $l=4.65e-07 $layer=POLY_cond $X=0.52 $Y=1.025
+ $X2=0.52 $Y2=0.56
r62 1 23 12.2893 $w=1.8e-07 $l=1.35e-07 $layer=POLY_cond $X=0.495 $Y=1.295
+ $X2=0.495 $Y2=1.16
r63 1 3 268.21 $w=1.8e-07 $l=6.9e-07 $layer=POLY_cond $X=0.495 $Y=1.295
+ $X2=0.495 $Y2=1.985
.ends

.subckt PM_SKY130_FD_SC_HDLL__MUXB4TO1_2%A_278_265# 1 2 9 11 12 15 17 18 21 28
+ 32
c77 9 0 1.30521e-19 $X=1.49 $Y=2.075
r78 26 28 13.4767 $w=2.58e-07 $l=3.756e-07 $layer=LI1_cond $X=2.43 $Y=1.42
+ $X2=2.715 $Y2=1.63
r79 25 32 66.8227 $w=2.2e-07 $l=3.05e-07 $layer=POLY_cond $X=2.265 $Y=1.34
+ $X2=1.96 $Y2=1.34
r80 24 26 7.80233 $w=2.58e-07 $l=1.65e-07 $layer=LI1_cond $X=2.265 $Y=1.42
+ $X2=2.43 $Y2=1.42
r81 24 25 145.28 $w=1.7e-07 $l=1.7e-07 $layer=licon1_POLY $count=1 $X=2.265
+ $Y=1.34 $X2=2.265 $Y2=1.34
r82 21 28 23.5727 $w=3.28e-07 $l=6.75e-07 $layer=LI1_cond $X=2.715 $Y=2.31
+ $X2=2.715 $Y2=1.635
r83 18 26 3.17874 $w=1.7e-07 $l=2.15e-07 $layer=LI1_cond $X=2.43 $Y=1.205
+ $X2=2.43 $Y2=1.42
r84 17 31 16.1792 $w=2.79e-07 $l=4.97152e-07 $layer=LI1_cond $X=2.43 $Y=0.755
+ $X2=2.8 $Y2=0.457
r85 17 18 29.3583 $w=1.68e-07 $l=4.5e-07 $layer=LI1_cond $X=2.43 $Y=0.755
+ $X2=2.43 $Y2=1.205
r86 13 32 7.56431 $w=1.8e-07 $l=1.35e-07 $layer=POLY_cond $X=1.96 $Y=1.475
+ $X2=1.96 $Y2=1.34
r87 13 15 233.226 $w=1.8e-07 $l=6e-07 $layer=POLY_cond $X=1.96 $Y=1.475 $X2=1.96
+ $Y2=2.075
r88 11 32 24.6297 $w=2.2e-07 $l=1.16189e-07 $layer=POLY_cond $X=1.87 $Y=1.4
+ $X2=1.96 $Y2=1.34
r89 11 12 148.702 $w=1.5e-07 $l=2.9e-07 $layer=POLY_cond $X=1.87 $Y=1.4 $X2=1.58
+ $Y2=1.4
r90 7 12 27.2212 $w=1.5e-07 $l=1.21861e-07 $layer=POLY_cond $X=1.49 $Y=1.475
+ $X2=1.58 $Y2=1.4
r91 7 9 233.226 $w=1.8e-07 $l=6e-07 $layer=POLY_cond $X=1.49 $Y=1.475 $X2=1.49
+ $Y2=2.075
r92 2 28 400 $w=1.7e-07 $l=1.97864e-07 $layer=licon1_PDIFF $count=1 $X=2.59
+ $Y=1.485 $X2=2.715 $Y2=1.63
r93 2 21 400 $w=1.7e-07 $l=8.85297e-07 $layer=licon1_PDIFF $count=1 $X=2.59
+ $Y=1.485 $X2=2.715 $Y2=2.31
r94 1 31 182 $w=1.7e-07 $l=3.16386e-07 $layer=licon1_NDIFF $count=1 $X=2.675
+ $Y=0.235 $X2=2.8 $Y2=0.495
.ends

.subckt PM_SKY130_FD_SC_HDLL__MUXB4TO1_2%S[0] 1 3 4 5 6 8 9 12 13 14 15 17 18 20
+ 21 22
r65 24 26 44.8372 $w=2.58e-07 $l=2.4e-07 $layer=POLY_cond $X=2.955 $Y=0.92
+ $X2=2.955 $Y2=1.16
r66 22 26 145.28 $w=1.7e-07 $l=1.7e-07 $layer=licon1_POLY $count=1 $X=2.955
+ $Y=1.16 $X2=2.955 $Y2=1.16
r67 18 24 22.3869 $w=2.58e-07 $l=9.87421e-08 $layer=POLY_cond $X=3.01 $Y=0.845
+ $X2=2.955 $Y2=0.92
r68 18 20 112.467 $w=1.5e-07 $l=3.5e-07 $layer=POLY_cond $X=3.01 $Y=0.845
+ $X2=3.01 $Y2=0.495
r69 15 26 51.1626 $w=2.58e-07 $l=2.52488e-07 $layer=POLY_cond $X=2.95 $Y=1.41
+ $X2=2.955 $Y2=1.16
r70 15 17 153.972 $w=1.8e-07 $l=5.75e-07 $layer=POLY_cond $X=2.95 $Y=1.41
+ $X2=2.95 $Y2=1.985
r71 13 24 15.449 $w=1.5e-07 $l=1.35e-07 $layer=POLY_cond $X=2.82 $Y=0.92
+ $X2=2.955 $Y2=0.92
r72 13 14 194.851 $w=1.5e-07 $l=3.8e-07 $layer=POLY_cond $X=2.82 $Y=0.92
+ $X2=2.44 $Y2=0.92
r73 12 14 26.9307 $w=1.5e-07 $l=1.06066e-07 $layer=POLY_cond $X=2.365 $Y=0.845
+ $X2=2.44 $Y2=0.92
r74 11 12 302.532 $w=1.5e-07 $l=5.9e-07 $layer=POLY_cond $X=2.365 $Y=0.255
+ $X2=2.365 $Y2=0.845
r75 10 21 20.4101 $w=1.5e-07 $l=7.5e-08 $layer=POLY_cond $X=1.955 $Y=0.18
+ $X2=1.88 $Y2=0.18
r76 9 11 26.9307 $w=1.5e-07 $l=1.06066e-07 $layer=POLY_cond $X=2.29 $Y=0.18
+ $X2=2.365 $Y2=0.255
r77 9 10 171.777 $w=1.5e-07 $l=3.35e-07 $layer=POLY_cond $X=2.29 $Y=0.18
+ $X2=1.955 $Y2=0.18
r78 6 21 5.30422 $w=1.5e-07 $l=7.5e-08 $layer=POLY_cond $X=1.88 $Y=0.255
+ $X2=1.88 $Y2=0.18
r79 6 8 112.467 $w=1.5e-07 $l=3.5e-07 $layer=POLY_cond $X=1.88 $Y=0.255 $X2=1.88
+ $Y2=0.605
r80 4 21 20.4101 $w=1.5e-07 $l=7.5e-08 $layer=POLY_cond $X=1.805 $Y=0.18
+ $X2=1.88 $Y2=0.18
r81 4 5 138.447 $w=1.5e-07 $l=2.7e-07 $layer=POLY_cond $X=1.805 $Y=0.18
+ $X2=1.535 $Y2=0.18
r82 1 5 26.9307 $w=1.5e-07 $l=1.06066e-07 $layer=POLY_cond $X=1.46 $Y=0.255
+ $X2=1.535 $Y2=0.18
r83 1 3 112.467 $w=1.5e-07 $l=3.5e-07 $layer=POLY_cond $X=1.46 $Y=0.255 $X2=1.46
+ $Y2=0.605
.ends

.subckt PM_SKY130_FD_SC_HDLL__MUXB4TO1_2%S[1] 1 3 4 6 7 10 11 12 13 15 16 18 20
+ 21 22
r62 24 26 44.8372 $w=2.58e-07 $l=2.4e-07 $layer=POLY_cond $X=3.485 $Y=0.92
+ $X2=3.485 $Y2=1.16
r63 22 26 145.28 $w=1.7e-07 $l=1.7e-07 $layer=licon1_POLY $count=1 $X=3.485
+ $Y=1.16 $X2=3.485 $Y2=1.16
r64 18 20 112.467 $w=1.5e-07 $l=3.5e-07 $layer=POLY_cond $X=4.98 $Y=0.255
+ $X2=4.98 $Y2=0.605
r65 17 21 20.4101 $w=1.5e-07 $l=7.5e-08 $layer=POLY_cond $X=4.635 $Y=0.18
+ $X2=4.56 $Y2=0.18
r66 16 18 26.9307 $w=1.5e-07 $l=1.06066e-07 $layer=POLY_cond $X=4.905 $Y=0.18
+ $X2=4.98 $Y2=0.255
r67 16 17 138.447 $w=1.5e-07 $l=2.7e-07 $layer=POLY_cond $X=4.905 $Y=0.18
+ $X2=4.635 $Y2=0.18
r68 13 21 5.30422 $w=1.5e-07 $l=7.5e-08 $layer=POLY_cond $X=4.56 $Y=0.255
+ $X2=4.56 $Y2=0.18
r69 13 15 112.467 $w=1.5e-07 $l=3.5e-07 $layer=POLY_cond $X=4.56 $Y=0.255
+ $X2=4.56 $Y2=0.605
r70 11 21 20.4101 $w=1.5e-07 $l=7.5e-08 $layer=POLY_cond $X=4.485 $Y=0.18
+ $X2=4.56 $Y2=0.18
r71 11 12 171.777 $w=1.5e-07 $l=3.35e-07 $layer=POLY_cond $X=4.485 $Y=0.18
+ $X2=4.15 $Y2=0.18
r72 9 12 26.9307 $w=1.5e-07 $l=1.06066e-07 $layer=POLY_cond $X=4.075 $Y=0.255
+ $X2=4.15 $Y2=0.18
r73 9 10 302.532 $w=1.5e-07 $l=5.9e-07 $layer=POLY_cond $X=4.075 $Y=0.255
+ $X2=4.075 $Y2=0.845
r74 8 24 15.449 $w=1.5e-07 $l=1.35e-07 $layer=POLY_cond $X=3.62 $Y=0.92
+ $X2=3.485 $Y2=0.92
r75 7 10 26.9307 $w=1.5e-07 $l=1.06066e-07 $layer=POLY_cond $X=4 $Y=0.92
+ $X2=4.075 $Y2=0.845
r76 7 8 194.851 $w=1.5e-07 $l=3.8e-07 $layer=POLY_cond $X=4 $Y=0.92 $X2=3.62
+ $Y2=0.92
r77 4 26 51.1626 $w=2.58e-07 $l=2.52488e-07 $layer=POLY_cond $X=3.49 $Y=1.41
+ $X2=3.485 $Y2=1.16
r78 4 6 153.972 $w=1.8e-07 $l=5.75e-07 $layer=POLY_cond $X=3.49 $Y=1.41 $X2=3.49
+ $Y2=1.985
r79 1 24 22.3869 $w=2.58e-07 $l=9.87421e-08 $layer=POLY_cond $X=3.43 $Y=0.845
+ $X2=3.485 $Y2=0.92
r80 1 3 112.467 $w=1.5e-07 $l=3.5e-07 $layer=POLY_cond $X=3.43 $Y=0.845 $X2=3.43
+ $Y2=0.495
.ends

.subckt PM_SKY130_FD_SC_HDLL__MUXB4TO1_2%A_701_47# 1 2 9 11 12 15 19 22 24 28
c74 15 0 1.69024e-19 $X=4.95 $Y=2.075
c75 11 0 1.93373e-19 $X=4.86 $Y=1.4
r76 31 33 66.8227 $w=2.2e-07 $l=3.05e-07 $layer=POLY_cond $X=4.175 $Y=1.34
+ $X2=4.48 $Y2=1.34
r77 30 31 145.28 $w=1.7e-07 $l=1.7e-07 $layer=licon1_POLY $count=1 $X=4.175
+ $Y=1.34 $X2=4.175 $Y2=1.34
r78 28 30 7.80233 $w=2.58e-07 $l=1.65e-07 $layer=LI1_cond $X=4.01 $Y=1.42
+ $X2=4.175 $Y2=1.42
r79 27 28 13.4767 $w=2.58e-07 $l=3.756e-07 $layer=LI1_cond $X=3.725 $Y=1.63
+ $X2=4.01 $Y2=1.42
r80 22 28 3.17874 $w=1.7e-07 $l=2.15e-07 $layer=LI1_cond $X=4.01 $Y=1.205
+ $X2=4.01 $Y2=1.42
r81 21 24 16.1792 $w=2.79e-07 $l=4.97152e-07 $layer=LI1_cond $X=4.01 $Y=0.755
+ $X2=3.64 $Y2=0.457
r82 21 22 29.3583 $w=1.68e-07 $l=4.5e-07 $layer=LI1_cond $X=4.01 $Y=0.755
+ $X2=4.01 $Y2=1.205
r83 19 27 23.5727 $w=3.28e-07 $l=6.75e-07 $layer=LI1_cond $X=3.725 $Y=2.31
+ $X2=3.725 $Y2=1.635
r84 13 15 233.226 $w=1.8e-07 $l=6e-07 $layer=POLY_cond $X=4.95 $Y=1.475 $X2=4.95
+ $Y2=2.075
r85 12 33 24.6297 $w=2.2e-07 $l=1.16189e-07 $layer=POLY_cond $X=4.57 $Y=1.4
+ $X2=4.48 $Y2=1.34
r86 11 13 27.2212 $w=1.5e-07 $l=1.21861e-07 $layer=POLY_cond $X=4.86 $Y=1.4
+ $X2=4.95 $Y2=1.475
r87 11 12 148.702 $w=1.5e-07 $l=2.9e-07 $layer=POLY_cond $X=4.86 $Y=1.4 $X2=4.57
+ $Y2=1.4
r88 7 33 7.56431 $w=1.8e-07 $l=1.35e-07 $layer=POLY_cond $X=4.48 $Y=1.475
+ $X2=4.48 $Y2=1.34
r89 7 9 233.226 $w=1.8e-07 $l=6e-07 $layer=POLY_cond $X=4.48 $Y=1.475 $X2=4.48
+ $Y2=2.075
r90 2 27 400 $w=1.7e-07 $l=2.05061e-07 $layer=licon1_PDIFF $count=1 $X=3.58
+ $Y=1.485 $X2=3.725 $Y2=1.63
r91 2 19 400 $w=1.7e-07 $l=8.94567e-07 $layer=licon1_PDIFF $count=1 $X=3.58
+ $Y=1.485 $X2=3.725 $Y2=2.31
r92 1 24 182 $w=1.7e-07 $l=3.20468e-07 $layer=licon1_NDIFF $count=1 $X=3.505
+ $Y=0.235 $X2=3.64 $Y2=0.495
.ends

.subckt PM_SKY130_FD_SC_HDLL__MUXB4TO1_2%D[1] 3 7 11 15 17 28
c53 17 0 1.17966e-19 $X=6.21 $Y=1.19
c54 15 0 1.17966e-19 $X=5.945 $Y=1.985
r55 28 29 145.28 $w=1.7e-07 $l=1.7e-07 $layer=licon1_POLY $count=1 $X=6.03
+ $Y=1.16 $X2=6.03 $Y2=1.16
r56 26 28 18.8848 $w=2.7e-07 $l=8.5e-08 $layer=POLY_cond $X=5.945 $Y=1.16
+ $X2=6.03 $Y2=1.16
r57 25 26 5.55434 $w=2.7e-07 $l=2.5e-08 $layer=POLY_cond $X=5.92 $Y=1.16
+ $X2=5.945 $Y2=1.16
r58 24 29 14.5122 $w=2.68e-07 $l=3.4e-07 $layer=LI1_cond $X=5.69 $Y=1.19
+ $X2=6.03 $Y2=1.19
r59 23 25 51.1 $w=2.7e-07 $l=2.3e-07 $layer=POLY_cond $X=5.69 $Y=1.16 $X2=5.92
+ $Y2=1.16
r60 23 24 145.28 $w=1.7e-07 $l=1.7e-07 $layer=licon1_POLY $count=1 $X=5.69
+ $Y=1.16 $X2=5.69 $Y2=1.16
r61 21 23 42.213 $w=2.7e-07 $l=1.9e-07 $layer=POLY_cond $X=5.5 $Y=1.16 $X2=5.69
+ $Y2=1.16
r62 19 21 5.55434 $w=2.7e-07 $l=2.5e-08 $layer=POLY_cond $X=5.475 $Y=1.16
+ $X2=5.5 $Y2=1.16
r63 17 29 7.68295 $w=2.68e-07 $l=1.8e-07 $layer=LI1_cond $X=6.21 $Y=1.19
+ $X2=6.03 $Y2=1.19
r64 13 26 12.2893 $w=1.8e-07 $l=1.35e-07 $layer=POLY_cond $X=5.945 $Y=1.295
+ $X2=5.945 $Y2=1.16
r65 13 15 268.21 $w=1.8e-07 $l=6.9e-07 $layer=POLY_cond $X=5.945 $Y=1.295
+ $X2=5.945 $Y2=1.985
r66 9 25 16.5046 $w=1.5e-07 $l=1.35e-07 $layer=POLY_cond $X=5.92 $Y=1.025
+ $X2=5.92 $Y2=1.16
r67 9 11 238.436 $w=1.5e-07 $l=4.65e-07 $layer=POLY_cond $X=5.92 $Y=1.025
+ $X2=5.92 $Y2=0.56
r68 5 21 16.5046 $w=1.5e-07 $l=1.35e-07 $layer=POLY_cond $X=5.5 $Y=1.025 $X2=5.5
+ $Y2=1.16
r69 5 7 238.436 $w=1.5e-07 $l=4.65e-07 $layer=POLY_cond $X=5.5 $Y=1.025 $X2=5.5
+ $Y2=0.56
r70 1 19 12.2893 $w=1.8e-07 $l=1.35e-07 $layer=POLY_cond $X=5.475 $Y=1.295
+ $X2=5.475 $Y2=1.16
r71 1 3 268.21 $w=1.8e-07 $l=6.9e-07 $layer=POLY_cond $X=5.475 $Y=1.295
+ $X2=5.475 $Y2=1.985
.ends

.subckt PM_SKY130_FD_SC_HDLL__MUXB4TO1_2%D[2] 3 7 11 15 17 27 29
c54 27 0 1.17966e-19 $X=7.19 $Y=1.16
c55 3 0 1.17966e-19 $X=6.935 $Y=1.985
r56 28 29 5.55434 $w=2.7e-07 $l=2.5e-08 $layer=POLY_cond $X=7.38 $Y=1.16
+ $X2=7.405 $Y2=1.16
r57 26 28 42.213 $w=2.7e-07 $l=1.9e-07 $layer=POLY_cond $X=7.19 $Y=1.16 $X2=7.38
+ $Y2=1.16
r58 26 27 145.28 $w=1.7e-07 $l=1.7e-07 $layer=licon1_POLY $count=1 $X=7.19
+ $Y=1.16 $X2=7.19 $Y2=1.16
r59 24 26 51.1 $w=2.7e-07 $l=2.3e-07 $layer=POLY_cond $X=6.96 $Y=1.16 $X2=7.19
+ $Y2=1.16
r60 23 24 5.55434 $w=2.7e-07 $l=2.5e-08 $layer=POLY_cond $X=6.935 $Y=1.16
+ $X2=6.96 $Y2=1.16
r61 21 27 14.5122 $w=2.68e-07 $l=3.4e-07 $layer=LI1_cond $X=6.85 $Y=1.19
+ $X2=7.19 $Y2=1.19
r62 20 23 18.8848 $w=2.7e-07 $l=8.5e-08 $layer=POLY_cond $X=6.85 $Y=1.16
+ $X2=6.935 $Y2=1.16
r63 20 21 145.28 $w=1.7e-07 $l=1.7e-07 $layer=licon1_POLY $count=1 $X=6.85
+ $Y=1.16 $X2=6.85 $Y2=1.16
r64 17 21 7.68295 $w=2.68e-07 $l=1.8e-07 $layer=LI1_cond $X=6.67 $Y=1.19
+ $X2=6.85 $Y2=1.19
r65 13 29 12.2893 $w=1.8e-07 $l=1.35e-07 $layer=POLY_cond $X=7.405 $Y=1.295
+ $X2=7.405 $Y2=1.16
r66 13 15 268.21 $w=1.8e-07 $l=6.9e-07 $layer=POLY_cond $X=7.405 $Y=1.295
+ $X2=7.405 $Y2=1.985
r67 9 28 16.5046 $w=1.5e-07 $l=1.35e-07 $layer=POLY_cond $X=7.38 $Y=1.025
+ $X2=7.38 $Y2=1.16
r68 9 11 238.436 $w=1.5e-07 $l=4.65e-07 $layer=POLY_cond $X=7.38 $Y=1.025
+ $X2=7.38 $Y2=0.56
r69 5 24 16.5046 $w=1.5e-07 $l=1.35e-07 $layer=POLY_cond $X=6.96 $Y=1.025
+ $X2=6.96 $Y2=1.16
r70 5 7 238.436 $w=1.5e-07 $l=4.65e-07 $layer=POLY_cond $X=6.96 $Y=1.025
+ $X2=6.96 $Y2=0.56
r71 1 23 12.2893 $w=1.8e-07 $l=1.35e-07 $layer=POLY_cond $X=6.935 $Y=1.295
+ $X2=6.935 $Y2=1.16
r72 1 3 268.21 $w=1.8e-07 $l=6.9e-07 $layer=POLY_cond $X=6.935 $Y=1.295
+ $X2=6.935 $Y2=1.985
.ends

.subckt PM_SKY130_FD_SC_HDLL__MUXB4TO1_2%A_1566_265# 1 2 9 11 12 15 17 18 21 28
+ 32
c78 12 0 1.93373e-19 $X=8.02 $Y=1.4
c79 9 0 1.69024e-19 $X=7.93 $Y=2.075
r80 26 28 13.4767 $w=2.58e-07 $l=3.756e-07 $layer=LI1_cond $X=8.87 $Y=1.42
+ $X2=9.155 $Y2=1.63
r81 25 32 66.8227 $w=2.2e-07 $l=3.05e-07 $layer=POLY_cond $X=8.705 $Y=1.34
+ $X2=8.4 $Y2=1.34
r82 24 26 7.80233 $w=2.58e-07 $l=1.65e-07 $layer=LI1_cond $X=8.705 $Y=1.42
+ $X2=8.87 $Y2=1.42
r83 24 25 145.28 $w=1.7e-07 $l=1.7e-07 $layer=licon1_POLY $count=1 $X=8.705
+ $Y=1.34 $X2=8.705 $Y2=1.34
r84 21 28 23.5727 $w=3.28e-07 $l=6.75e-07 $layer=LI1_cond $X=9.155 $Y=2.31
+ $X2=9.155 $Y2=1.635
r85 18 26 3.17874 $w=1.7e-07 $l=2.15e-07 $layer=LI1_cond $X=8.87 $Y=1.205
+ $X2=8.87 $Y2=1.42
r86 17 31 16.1792 $w=2.79e-07 $l=4.97152e-07 $layer=LI1_cond $X=8.87 $Y=0.755
+ $X2=9.24 $Y2=0.457
r87 17 18 29.3583 $w=1.68e-07 $l=4.5e-07 $layer=LI1_cond $X=8.87 $Y=0.755
+ $X2=8.87 $Y2=1.205
r88 13 32 7.56431 $w=1.8e-07 $l=1.35e-07 $layer=POLY_cond $X=8.4 $Y=1.475
+ $X2=8.4 $Y2=1.34
r89 13 15 233.226 $w=1.8e-07 $l=6e-07 $layer=POLY_cond $X=8.4 $Y=1.475 $X2=8.4
+ $Y2=2.075
r90 11 32 24.6297 $w=2.2e-07 $l=1.16189e-07 $layer=POLY_cond $X=8.31 $Y=1.4
+ $X2=8.4 $Y2=1.34
r91 11 12 148.702 $w=1.5e-07 $l=2.9e-07 $layer=POLY_cond $X=8.31 $Y=1.4 $X2=8.02
+ $Y2=1.4
r92 7 12 27.2212 $w=1.5e-07 $l=1.21861e-07 $layer=POLY_cond $X=7.93 $Y=1.475
+ $X2=8.02 $Y2=1.4
r93 7 9 233.226 $w=1.8e-07 $l=6e-07 $layer=POLY_cond $X=7.93 $Y=1.475 $X2=7.93
+ $Y2=2.075
r94 2 28 400 $w=1.7e-07 $l=1.97864e-07 $layer=licon1_PDIFF $count=1 $X=9.03
+ $Y=1.485 $X2=9.155 $Y2=1.63
r95 2 21 400 $w=1.7e-07 $l=8.85297e-07 $layer=licon1_PDIFF $count=1 $X=9.03
+ $Y=1.485 $X2=9.155 $Y2=2.31
r96 1 31 182 $w=1.7e-07 $l=3.16386e-07 $layer=licon1_NDIFF $count=1 $X=9.115
+ $Y=0.235 $X2=9.24 $Y2=0.495
.ends

.subckt PM_SKY130_FD_SC_HDLL__MUXB4TO1_2%S[2] 1 3 4 5 6 8 9 12 13 14 15 17 18 20
+ 21 22
r65 24 26 44.8372 $w=2.58e-07 $l=2.4e-07 $layer=POLY_cond $X=9.395 $Y=0.92
+ $X2=9.395 $Y2=1.16
r66 22 26 145.28 $w=1.7e-07 $l=1.7e-07 $layer=licon1_POLY $count=1 $X=9.395
+ $Y=1.16 $X2=9.395 $Y2=1.16
r67 18 24 22.3869 $w=2.58e-07 $l=9.87421e-08 $layer=POLY_cond $X=9.45 $Y=0.845
+ $X2=9.395 $Y2=0.92
r68 18 20 112.467 $w=1.5e-07 $l=3.5e-07 $layer=POLY_cond $X=9.45 $Y=0.845
+ $X2=9.45 $Y2=0.495
r69 15 26 51.1626 $w=2.58e-07 $l=2.52488e-07 $layer=POLY_cond $X=9.39 $Y=1.41
+ $X2=9.395 $Y2=1.16
r70 15 17 153.972 $w=1.8e-07 $l=5.75e-07 $layer=POLY_cond $X=9.39 $Y=1.41
+ $X2=9.39 $Y2=1.985
r71 13 24 15.449 $w=1.5e-07 $l=1.35e-07 $layer=POLY_cond $X=9.26 $Y=0.92
+ $X2=9.395 $Y2=0.92
r72 13 14 194.851 $w=1.5e-07 $l=3.8e-07 $layer=POLY_cond $X=9.26 $Y=0.92
+ $X2=8.88 $Y2=0.92
r73 12 14 26.9307 $w=1.5e-07 $l=1.06066e-07 $layer=POLY_cond $X=8.805 $Y=0.845
+ $X2=8.88 $Y2=0.92
r74 11 12 302.532 $w=1.5e-07 $l=5.9e-07 $layer=POLY_cond $X=8.805 $Y=0.255
+ $X2=8.805 $Y2=0.845
r75 10 21 20.4101 $w=1.5e-07 $l=7.5e-08 $layer=POLY_cond $X=8.395 $Y=0.18
+ $X2=8.32 $Y2=0.18
r76 9 11 26.9307 $w=1.5e-07 $l=1.06066e-07 $layer=POLY_cond $X=8.73 $Y=0.18
+ $X2=8.805 $Y2=0.255
r77 9 10 171.777 $w=1.5e-07 $l=3.35e-07 $layer=POLY_cond $X=8.73 $Y=0.18
+ $X2=8.395 $Y2=0.18
r78 6 21 5.30422 $w=1.5e-07 $l=7.5e-08 $layer=POLY_cond $X=8.32 $Y=0.255
+ $X2=8.32 $Y2=0.18
r79 6 8 112.467 $w=1.5e-07 $l=3.5e-07 $layer=POLY_cond $X=8.32 $Y=0.255 $X2=8.32
+ $Y2=0.605
r80 4 21 20.4101 $w=1.5e-07 $l=7.5e-08 $layer=POLY_cond $X=8.245 $Y=0.18
+ $X2=8.32 $Y2=0.18
r81 4 5 138.447 $w=1.5e-07 $l=2.7e-07 $layer=POLY_cond $X=8.245 $Y=0.18
+ $X2=7.975 $Y2=0.18
r82 1 5 26.9307 $w=1.5e-07 $l=1.06066e-07 $layer=POLY_cond $X=7.9 $Y=0.255
+ $X2=7.975 $Y2=0.18
r83 1 3 112.467 $w=1.5e-07 $l=3.5e-07 $layer=POLY_cond $X=7.9 $Y=0.255 $X2=7.9
+ $Y2=0.605
.ends

.subckt PM_SKY130_FD_SC_HDLL__MUXB4TO1_2%S[3] 1 3 4 6 7 10 11 12 13 15 16 18 20
+ 21 22
r62 24 26 44.8372 $w=2.58e-07 $l=2.4e-07 $layer=POLY_cond $X=9.925 $Y=0.92
+ $X2=9.925 $Y2=1.16
r63 22 26 145.28 $w=1.7e-07 $l=1.7e-07 $layer=licon1_POLY $count=1 $X=9.925
+ $Y=1.16 $X2=9.925 $Y2=1.16
r64 18 20 112.467 $w=1.5e-07 $l=3.5e-07 $layer=POLY_cond $X=11.42 $Y=0.255
+ $X2=11.42 $Y2=0.605
r65 17 21 20.4101 $w=1.5e-07 $l=7.5e-08 $layer=POLY_cond $X=11.075 $Y=0.18
+ $X2=11 $Y2=0.18
r66 16 18 26.9307 $w=1.5e-07 $l=1.06066e-07 $layer=POLY_cond $X=11.345 $Y=0.18
+ $X2=11.42 $Y2=0.255
r67 16 17 138.447 $w=1.5e-07 $l=2.7e-07 $layer=POLY_cond $X=11.345 $Y=0.18
+ $X2=11.075 $Y2=0.18
r68 13 21 5.30422 $w=1.5e-07 $l=7.5e-08 $layer=POLY_cond $X=11 $Y=0.255 $X2=11
+ $Y2=0.18
r69 13 15 112.467 $w=1.5e-07 $l=3.5e-07 $layer=POLY_cond $X=11 $Y=0.255 $X2=11
+ $Y2=0.605
r70 11 21 20.4101 $w=1.5e-07 $l=7.5e-08 $layer=POLY_cond $X=10.925 $Y=0.18
+ $X2=11 $Y2=0.18
r71 11 12 171.777 $w=1.5e-07 $l=3.35e-07 $layer=POLY_cond $X=10.925 $Y=0.18
+ $X2=10.59 $Y2=0.18
r72 9 12 26.9307 $w=1.5e-07 $l=1.06066e-07 $layer=POLY_cond $X=10.515 $Y=0.255
+ $X2=10.59 $Y2=0.18
r73 9 10 302.532 $w=1.5e-07 $l=5.9e-07 $layer=POLY_cond $X=10.515 $Y=0.255
+ $X2=10.515 $Y2=0.845
r74 8 24 15.449 $w=1.5e-07 $l=1.35e-07 $layer=POLY_cond $X=10.06 $Y=0.92
+ $X2=9.925 $Y2=0.92
r75 7 10 26.9307 $w=1.5e-07 $l=1.06066e-07 $layer=POLY_cond $X=10.44 $Y=0.92
+ $X2=10.515 $Y2=0.845
r76 7 8 194.851 $w=1.5e-07 $l=3.8e-07 $layer=POLY_cond $X=10.44 $Y=0.92
+ $X2=10.06 $Y2=0.92
r77 4 26 51.1626 $w=2.58e-07 $l=2.52488e-07 $layer=POLY_cond $X=9.93 $Y=1.41
+ $X2=9.925 $Y2=1.16
r78 4 6 153.972 $w=1.8e-07 $l=5.75e-07 $layer=POLY_cond $X=9.93 $Y=1.41 $X2=9.93
+ $Y2=1.985
r79 1 24 22.3869 $w=2.58e-07 $l=9.87421e-08 $layer=POLY_cond $X=9.87 $Y=0.845
+ $X2=9.925 $Y2=0.92
r80 1 3 112.467 $w=1.5e-07 $l=3.5e-07 $layer=POLY_cond $X=9.87 $Y=0.845 $X2=9.87
+ $Y2=0.495
.ends

.subckt PM_SKY130_FD_SC_HDLL__MUXB4TO1_2%A_1989_47# 1 2 9 11 12 15 19 22 24 28
c73 15 0 1.30521e-19 $X=11.39 $Y=2.075
r74 31 33 66.8227 $w=2.2e-07 $l=3.05e-07 $layer=POLY_cond $X=10.615 $Y=1.34
+ $X2=10.92 $Y2=1.34
r75 30 31 145.28 $w=1.7e-07 $l=1.7e-07 $layer=licon1_POLY $count=1 $X=10.615
+ $Y=1.34 $X2=10.615 $Y2=1.34
r76 28 30 7.80233 $w=2.58e-07 $l=1.65e-07 $layer=LI1_cond $X=10.45 $Y=1.42
+ $X2=10.615 $Y2=1.42
r77 27 28 13.4767 $w=2.58e-07 $l=3.756e-07 $layer=LI1_cond $X=10.165 $Y=1.63
+ $X2=10.45 $Y2=1.42
r78 22 28 3.17874 $w=1.7e-07 $l=2.15e-07 $layer=LI1_cond $X=10.45 $Y=1.205
+ $X2=10.45 $Y2=1.42
r79 21 24 16.1792 $w=2.79e-07 $l=4.97152e-07 $layer=LI1_cond $X=10.45 $Y=0.755
+ $X2=10.08 $Y2=0.457
r80 21 22 29.3583 $w=1.68e-07 $l=4.5e-07 $layer=LI1_cond $X=10.45 $Y=0.755
+ $X2=10.45 $Y2=1.205
r81 19 27 23.5727 $w=3.28e-07 $l=6.75e-07 $layer=LI1_cond $X=10.165 $Y=2.31
+ $X2=10.165 $Y2=1.635
r82 13 15 233.226 $w=1.8e-07 $l=6e-07 $layer=POLY_cond $X=11.39 $Y=1.475
+ $X2=11.39 $Y2=2.075
r83 12 33 24.6297 $w=2.2e-07 $l=1.16189e-07 $layer=POLY_cond $X=11.01 $Y=1.4
+ $X2=10.92 $Y2=1.34
r84 11 13 27.2212 $w=1.5e-07 $l=1.21861e-07 $layer=POLY_cond $X=11.3 $Y=1.4
+ $X2=11.39 $Y2=1.475
r85 11 12 148.702 $w=1.5e-07 $l=2.9e-07 $layer=POLY_cond $X=11.3 $Y=1.4
+ $X2=11.01 $Y2=1.4
r86 7 33 7.56431 $w=1.8e-07 $l=1.35e-07 $layer=POLY_cond $X=10.92 $Y=1.475
+ $X2=10.92 $Y2=1.34
r87 7 9 233.226 $w=1.8e-07 $l=6e-07 $layer=POLY_cond $X=10.92 $Y=1.475 $X2=10.92
+ $Y2=2.075
r88 2 27 400 $w=1.7e-07 $l=2.05061e-07 $layer=licon1_PDIFF $count=1 $X=10.02
+ $Y=1.485 $X2=10.165 $Y2=1.63
r89 2 19 400 $w=1.7e-07 $l=8.94567e-07 $layer=licon1_PDIFF $count=1 $X=10.02
+ $Y=1.485 $X2=10.165 $Y2=2.31
r90 1 24 182 $w=1.7e-07 $l=3.20468e-07 $layer=licon1_NDIFF $count=1 $X=9.945
+ $Y=0.235 $X2=10.08 $Y2=0.495
.ends

.subckt PM_SKY130_FD_SC_HDLL__MUXB4TO1_2%D[3] 3 7 11 15 17 28
r46 28 29 145.28 $w=1.7e-07 $l=1.7e-07 $layer=licon1_POLY $count=1 $X=12.47
+ $Y=1.16 $X2=12.47 $Y2=1.16
r47 26 28 18.8848 $w=2.7e-07 $l=8.5e-08 $layer=POLY_cond $X=12.385 $Y=1.16
+ $X2=12.47 $Y2=1.16
r48 25 26 5.55434 $w=2.7e-07 $l=2.5e-08 $layer=POLY_cond $X=12.36 $Y=1.16
+ $X2=12.385 $Y2=1.16
r49 24 29 14.5122 $w=2.68e-07 $l=3.4e-07 $layer=LI1_cond $X=12.13 $Y=1.19
+ $X2=12.47 $Y2=1.19
r50 23 25 51.1 $w=2.7e-07 $l=2.3e-07 $layer=POLY_cond $X=12.13 $Y=1.16 $X2=12.36
+ $Y2=1.16
r51 23 24 145.28 $w=1.7e-07 $l=1.7e-07 $layer=licon1_POLY $count=1 $X=12.13
+ $Y=1.16 $X2=12.13 $Y2=1.16
r52 21 23 42.213 $w=2.7e-07 $l=1.9e-07 $layer=POLY_cond $X=11.94 $Y=1.16
+ $X2=12.13 $Y2=1.16
r53 19 21 5.55434 $w=2.7e-07 $l=2.5e-08 $layer=POLY_cond $X=11.915 $Y=1.16
+ $X2=11.94 $Y2=1.16
r54 17 29 7.68295 $w=2.68e-07 $l=1.8e-07 $layer=LI1_cond $X=12.65 $Y=1.19
+ $X2=12.47 $Y2=1.19
r55 13 26 12.2893 $w=1.8e-07 $l=1.35e-07 $layer=POLY_cond $X=12.385 $Y=1.295
+ $X2=12.385 $Y2=1.16
r56 13 15 268.21 $w=1.8e-07 $l=6.9e-07 $layer=POLY_cond $X=12.385 $Y=1.295
+ $X2=12.385 $Y2=1.985
r57 9 25 16.5046 $w=1.5e-07 $l=1.35e-07 $layer=POLY_cond $X=12.36 $Y=1.025
+ $X2=12.36 $Y2=1.16
r58 9 11 238.436 $w=1.5e-07 $l=4.65e-07 $layer=POLY_cond $X=12.36 $Y=1.025
+ $X2=12.36 $Y2=0.56
r59 5 21 16.5046 $w=1.5e-07 $l=1.35e-07 $layer=POLY_cond $X=11.94 $Y=1.025
+ $X2=11.94 $Y2=1.16
r60 5 7 238.436 $w=1.5e-07 $l=4.65e-07 $layer=POLY_cond $X=11.94 $Y=1.025
+ $X2=11.94 $Y2=0.56
r61 1 19 12.2893 $w=1.8e-07 $l=1.35e-07 $layer=POLY_cond $X=11.915 $Y=1.295
+ $X2=11.915 $Y2=1.16
r62 1 3 268.21 $w=1.8e-07 $l=6.9e-07 $layer=POLY_cond $X=11.915 $Y=1.295
+ $X2=11.915 $Y2=1.985
.ends

.subckt PM_SKY130_FD_SC_HDLL__MUXB4TO1_2%A_27_297# 1 2 3 10 12 17 18 19 22 27 28
r47 27 28 4.65811 $w=3.28e-07 $l=1.3e-07 $layer=LI1_cond $X=0.26 $Y=2.34
+ $X2=0.26 $Y2=2.21
r48 20 22 31.6417 $w=1.68e-07 $l=4.85e-07 $layer=LI1_cond $X=2.195 $Y=2.295
+ $X2=2.195 $Y2=1.81
r49 18 20 6.81649 $w=1.7e-07 $l=1.20208e-07 $layer=LI1_cond $X=2.11 $Y=2.38
+ $X2=2.195 $Y2=2.295
r50 18 19 53.8235 $w=1.68e-07 $l=8.25e-07 $layer=LI1_cond $X=2.11 $Y=2.38
+ $X2=1.285 $Y2=2.38
r51 15 19 6.81649 $w=1.7e-07 $l=1.20208e-07 $layer=LI1_cond $X=1.2 $Y=2.295
+ $X2=1.285 $Y2=2.38
r52 15 17 33.5989 $w=1.68e-07 $l=5.15e-07 $layer=LI1_cond $X=1.2 $Y=2.295
+ $X2=1.2 $Y2=1.78
r53 14 17 7.50267 $w=1.68e-07 $l=1.15e-07 $layer=LI1_cond $X=1.2 $Y=1.665
+ $X2=1.2 $Y2=1.78
r54 13 25 4.79851 $w=1.7e-07 $l=1.5e-07 $layer=LI1_cond $X=0.395 $Y=1.58
+ $X2=0.245 $Y2=1.58
r55 12 14 6.81649 $w=1.7e-07 $l=1.20208e-07 $layer=LI1_cond $X=1.115 $Y=1.58
+ $X2=1.2 $Y2=1.665
r56 12 13 46.9733 $w=1.68e-07 $l=7.2e-07 $layer=LI1_cond $X=1.115 $Y=1.58
+ $X2=0.395 $Y2=1.58
r57 10 25 2.71916 $w=3e-07 $l=8.5e-08 $layer=LI1_cond $X=0.245 $Y=1.665
+ $X2=0.245 $Y2=1.58
r58 10 28 20.936 $w=2.98e-07 $l=5.45e-07 $layer=LI1_cond $X=0.245 $Y=1.665
+ $X2=0.245 $Y2=2.21
r59 3 22 300 $w=1.7e-07 $l=2.05061e-07 $layer=licon1_PDIFF $count=2 $X=2.05
+ $Y=1.665 $X2=2.195 $Y2=1.81
r60 2 17 300 $w=1.7e-07 $l=3.60278e-07 $layer=licon1_PDIFF $count=2 $X=1.055
+ $Y=1.485 $X2=1.2 $Y2=1.78
r61 1 27 600 $w=1.7e-07 $l=9.15369e-07 $layer=licon1_PDIFF $count=1 $X=0.135
+ $Y=1.485 $X2=0.26 $Y2=2.34
r62 1 25 300 $w=1.7e-07 $l=2.29129e-07 $layer=licon1_PDIFF $count=2 $X=0.135
+ $Y=1.485 $X2=0.26 $Y2=1.66
.ends

.subckt PM_SKY130_FD_SC_HDLL__MUXB4TO1_2%VPWR 1 2 3 4 5 6 22 25 32 36 39 46 48
+ 52 53 55 59 63 64 66 69 70 71 72 77 89 96 108 117 121 124 127 130
c182 66 0 1.30521e-19 $X=12.15 $Y=1.94
c183 59 0 1.69024e-19 $X=7.17 $Y=1.94
c184 55 0 1.69024e-19 $X=5.71 $Y=1.94
c185 48 0 1.30521e-19 $X=0.73 $Y=1.94
r186 130 131 9.3 $w=1.7e-07 $l=1.7e-07 $layer=mcon $count=1 $X=12.19 $Y=2.72
+ $X2=12.19 $Y2=2.72
r187 127 128 9.3 $w=1.7e-07 $l=1.7e-07 $layer=mcon $count=1 $X=7.13 $Y=2.72
+ $X2=7.13 $Y2=2.72
r188 124 125 9.3 $w=1.7e-07 $l=1.7e-07 $layer=mcon $count=1 $X=5.75 $Y=2.72
+ $X2=5.75 $Y2=2.72
r189 121 122 9.3 $w=1.7e-07 $l=1.7e-07 $layer=mcon $count=1 $X=0.69 $Y=2.72
+ $X2=0.69 $Y2=2.72
r190 115 130 8.04615 $w=1.7e-07 $l=1.5e-07 $layer=LI1_cond $X=12.285 $Y=2.72
+ $X2=12.135 $Y2=2.72
r191 115 117 23.8128 $w=1.68e-07 $l=3.65e-07 $layer=LI1_cond $X=12.285 $Y=2.72
+ $X2=12.65 $Y2=2.72
r192 114 131 0.130889 $w=4.8e-07 $l=4.6e-07 $layer=MET1_cond $X=11.73 $Y=2.72
+ $X2=12.19 $Y2=2.72
r193 113 114 3.72 $w=1.7e-07 $l=4.25e-07 $layer=mcon $count=2 $X=11.73 $Y=2.72
+ $X2=11.73 $Y2=2.72
r194 111 114 0.523557 $w=4.8e-07 $l=1.84e-06 $layer=MET1_cond $X=9.89 $Y=2.72
+ $X2=11.73 $Y2=2.72
r195 110 113 120.043 $w=1.68e-07 $l=1.84e-06 $layer=LI1_cond $X=9.89 $Y=2.72
+ $X2=11.73 $Y2=2.72
r196 110 111 3.72 $w=1.7e-07 $l=4.25e-07 $layer=mcon $count=2 $X=9.89 $Y=2.72
+ $X2=9.89 $Y2=2.72
r197 108 130 8.04615 $w=1.7e-07 $l=1.5e-07 $layer=LI1_cond $X=11.985 $Y=2.72
+ $X2=12.135 $Y2=2.72
r198 108 113 16.6364 $w=1.68e-07 $l=2.55e-07 $layer=LI1_cond $X=11.985 $Y=2.72
+ $X2=11.73 $Y2=2.72
r199 107 111 0.130889 $w=4.8e-07 $l=4.6e-07 $layer=MET1_cond $X=9.43 $Y=2.72
+ $X2=9.89 $Y2=2.72
r200 106 107 3.72 $w=1.7e-07 $l=4.25e-07 $layer=mcon $count=2 $X=9.43 $Y=2.72
+ $X2=9.43 $Y2=2.72
r201 104 107 0.523557 $w=4.8e-07 $l=1.84e-06 $layer=MET1_cond $X=7.59 $Y=2.72
+ $X2=9.43 $Y2=2.72
r202 104 128 0.130889 $w=4.8e-07 $l=4.6e-07 $layer=MET1_cond $X=7.59 $Y=2.72
+ $X2=7.13 $Y2=2.72
r203 103 106 120.043 $w=1.68e-07 $l=1.84e-06 $layer=LI1_cond $X=7.59 $Y=2.72
+ $X2=9.43 $Y2=2.72
r204 103 104 3.72 $w=1.7e-07 $l=4.25e-07 $layer=mcon $count=2 $X=7.59 $Y=2.72
+ $X2=7.59 $Y2=2.72
r205 101 127 8.04615 $w=1.7e-07 $l=1.5e-07 $layer=LI1_cond $X=7.335 $Y=2.72
+ $X2=7.185 $Y2=2.72
r206 101 103 16.6364 $w=1.68e-07 $l=2.55e-07 $layer=LI1_cond $X=7.335 $Y=2.72
+ $X2=7.59 $Y2=2.72
r207 97 124 8.04615 $w=1.7e-07 $l=1.5e-07 $layer=LI1_cond $X=5.845 $Y=2.72
+ $X2=5.695 $Y2=2.72
r208 97 99 53.8235 $w=1.68e-07 $l=8.25e-07 $layer=LI1_cond $X=5.845 $Y=2.72
+ $X2=6.67 $Y2=2.72
r209 96 127 8.04615 $w=1.7e-07 $l=1.5e-07 $layer=LI1_cond $X=7.035 $Y=2.72
+ $X2=7.185 $Y2=2.72
r210 96 99 23.8128 $w=1.68e-07 $l=3.65e-07 $layer=LI1_cond $X=7.035 $Y=2.72
+ $X2=6.67 $Y2=2.72
r211 95 125 0.130889 $w=4.8e-07 $l=4.6e-07 $layer=MET1_cond $X=5.29 $Y=2.72
+ $X2=5.75 $Y2=2.72
r212 94 95 3.72 $w=1.7e-07 $l=4.25e-07 $layer=mcon $count=2 $X=5.29 $Y=2.72
+ $X2=5.29 $Y2=2.72
r213 92 95 0.523557 $w=4.8e-07 $l=1.84e-06 $layer=MET1_cond $X=3.45 $Y=2.72
+ $X2=5.29 $Y2=2.72
r214 91 94 120.043 $w=1.68e-07 $l=1.84e-06 $layer=LI1_cond $X=3.45 $Y=2.72
+ $X2=5.29 $Y2=2.72
r215 91 92 3.72 $w=1.7e-07 $l=4.25e-07 $layer=mcon $count=2 $X=3.45 $Y=2.72
+ $X2=3.45 $Y2=2.72
r216 89 124 8.04615 $w=1.7e-07 $l=1.5e-07 $layer=LI1_cond $X=5.545 $Y=2.72
+ $X2=5.695 $Y2=2.72
r217 89 94 16.6364 $w=1.68e-07 $l=2.55e-07 $layer=LI1_cond $X=5.545 $Y=2.72
+ $X2=5.29 $Y2=2.72
r218 88 92 0.130889 $w=4.8e-07 $l=4.6e-07 $layer=MET1_cond $X=2.99 $Y=2.72
+ $X2=3.45 $Y2=2.72
r219 87 88 3.72 $w=1.7e-07 $l=4.25e-07 $layer=mcon $count=2 $X=2.99 $Y=2.72
+ $X2=2.99 $Y2=2.72
r220 85 88 0.523557 $w=4.8e-07 $l=1.84e-06 $layer=MET1_cond $X=1.15 $Y=2.72
+ $X2=2.99 $Y2=2.72
r221 85 122 0.130889 $w=4.8e-07 $l=4.6e-07 $layer=MET1_cond $X=1.15 $Y=2.72
+ $X2=0.69 $Y2=2.72
r222 84 87 120.043 $w=1.68e-07 $l=1.84e-06 $layer=LI1_cond $X=1.15 $Y=2.72
+ $X2=2.99 $Y2=2.72
r223 84 85 3.72 $w=1.7e-07 $l=4.25e-07 $layer=mcon $count=2 $X=1.15 $Y=2.72
+ $X2=1.15 $Y2=2.72
r224 82 121 8.04615 $w=1.7e-07 $l=1.5e-07 $layer=LI1_cond $X=0.895 $Y=2.72
+ $X2=0.745 $Y2=2.72
r225 82 84 16.6364 $w=1.68e-07 $l=2.55e-07 $layer=LI1_cond $X=0.895 $Y=2.72
+ $X2=1.15 $Y2=2.72
r226 77 121 8.04615 $w=1.7e-07 $l=1.5e-07 $layer=LI1_cond $X=0.595 $Y=2.72
+ $X2=0.745 $Y2=2.72
r227 77 79 23.8128 $w=1.68e-07 $l=3.65e-07 $layer=LI1_cond $X=0.595 $Y=2.72
+ $X2=0.23 $Y2=2.72
r228 72 131 0.130889 $w=4.8e-07 $l=4.6e-07 $layer=MET1_cond $X=12.65 $Y=2.72
+ $X2=12.19 $Y2=2.72
r229 72 117 9.3 $w=1.7e-07 $l=1.7e-07 $layer=mcon $count=1 $X=12.65 $Y=2.72
+ $X2=12.65 $Y2=2.72
r230 71 128 0.130889 $w=4.8e-07 $l=4.6e-07 $layer=MET1_cond $X=6.67 $Y=2.72
+ $X2=7.13 $Y2=2.72
r231 71 99 4.65 $w=1.7e-07 $l=3.4e-07 $layer=mcon $count=2 $X=6.67 $Y=2.72
+ $X2=6.67 $Y2=2.72
r232 70 71 0.130889 $w=4.8e-07 $l=4.6e-07 $layer=MET1_cond $X=6.21 $Y=2.72
+ $X2=6.67 $Y2=2.72
r233 70 125 0.130889 $w=4.8e-07 $l=4.6e-07 $layer=MET1_cond $X=6.21 $Y=2.72
+ $X2=5.75 $Y2=2.72
r234 69 122 0.130889 $w=4.8e-07 $l=4.6e-07 $layer=MET1_cond $X=0.23 $Y=2.72
+ $X2=0.69 $Y2=2.72
r235 69 79 9.3 $w=1.7e-07 $l=1.7e-07 $layer=mcon $count=1 $X=0.23 $Y=2.72
+ $X2=0.23 $Y2=2.72
r236 66 68 5.8804 $w=3.28e-07 $l=1.65e-07 $layer=LI1_cond $X=12.15 $Y=1.94
+ $X2=12.15 $Y2=2.105
r237 63 106 4.24064 $w=1.68e-07 $l=6.5e-08 $layer=LI1_cond $X=9.495 $Y=2.72
+ $X2=9.43 $Y2=2.72
r238 63 64 8.61065 $w=1.7e-07 $l=1.65e-07 $layer=LI1_cond $X=9.495 $Y=2.72
+ $X2=9.66 $Y2=2.72
r239 62 110 4.24064 $w=1.68e-07 $l=6.5e-08 $layer=LI1_cond $X=9.825 $Y=2.72
+ $X2=9.89 $Y2=2.72
r240 62 64 8.61065 $w=1.7e-07 $l=1.65e-07 $layer=LI1_cond $X=9.825 $Y=2.72
+ $X2=9.66 $Y2=2.72
r241 59 61 5.8804 $w=3.28e-07 $l=1.65e-07 $layer=LI1_cond $X=7.17 $Y=1.94
+ $X2=7.17 $Y2=2.105
r242 55 57 5.8804 $w=3.28e-07 $l=1.65e-07 $layer=LI1_cond $X=5.71 $Y=1.94
+ $X2=5.71 $Y2=2.105
r243 52 87 4.24064 $w=1.68e-07 $l=6.5e-08 $layer=LI1_cond $X=3.055 $Y=2.72
+ $X2=2.99 $Y2=2.72
r244 52 53 8.61065 $w=1.7e-07 $l=1.65e-07 $layer=LI1_cond $X=3.055 $Y=2.72
+ $X2=3.22 $Y2=2.72
r245 51 91 4.24064 $w=1.68e-07 $l=6.5e-08 $layer=LI1_cond $X=3.385 $Y=2.72
+ $X2=3.45 $Y2=2.72
r246 51 53 8.61065 $w=1.7e-07 $l=1.65e-07 $layer=LI1_cond $X=3.385 $Y=2.72
+ $X2=3.22 $Y2=2.72
r247 48 50 5.8804 $w=3.28e-07 $l=1.65e-07 $layer=LI1_cond $X=0.73 $Y=1.94
+ $X2=0.73 $Y2=2.105