* File: sky130_fd_sc_hdll__muxb4to1_4.pex.spice
* Created: Wed Sep  2 08:35:52 2020
* Program "Calibre xRC"
* Version "v2018.4_34.26"
* Nominal Temperature: 27C
* Circuit Temperature: 27C
* 
.subckt PM_SKY130_FD_SC_HDLL__MUXB4TO1_4%D[0] 3 7 11 15 19 23 27 31 33 35 36 51
+ 53
r83 52 53 5.55434 $w=2.7e-07 $l=2.5e-08 $layer=POLY_cond $X=1.88 $Y=1.16
+ $X2=1.905 $Y2=1.16
r84 50 52 57.7652 $w=2.7e-07 $l=2.6e-07 $layer=POLY_cond $X=1.62 $Y=1.16
+ $X2=1.88 $Y2=1.16
r85 50 51 145.28 $w=1.7e-07 $l=1.7e-07 $layer=licon1_POLY $count=1 $X=1.62
+ $Y=1.16 $X2=1.62 $Y2=1.16
r86 48 50 35.5478 $w=2.7e-07 $l=1.6e-07 $layer=POLY_cond $X=1.46 $Y=1.16
+ $X2=1.62 $Y2=1.16
r87 47 48 5.55434 $w=2.7e-07 $l=2.5e-08 $layer=POLY_cond $X=1.435 $Y=1.16
+ $X2=1.46 $Y2=1.16
r88 44 46 5.55434 $w=2.7e-07 $l=2.5e-08 $layer=POLY_cond $X=0.94 $Y=1.16
+ $X2=0.965 $Y2=1.16
r89 44 45 72.64 $w=1.7e-07 $l=3.4e-07 $layer=licon1_POLY $count=2 $X=0.94
+ $Y=1.16 $X2=0.94 $Y2=1.16
r90 42 44 93.313 $w=2.7e-07 $l=4.2e-07 $layer=POLY_cond $X=0.52 $Y=1.16 $X2=0.94
+ $Y2=1.16
r91 40 42 5.55434 $w=2.7e-07 $l=2.5e-08 $layer=POLY_cond $X=0.495 $Y=1.16
+ $X2=0.52 $Y2=1.16
r92 39 51 14.5122 $w=2.68e-07 $l=3.4e-07 $layer=LI1_cond $X=1.28 $Y=1.19
+ $X2=1.62 $Y2=1.19
r93 39 45 14.5122 $w=2.68e-07 $l=3.4e-07 $layer=LI1_cond $X=1.28 $Y=1.19
+ $X2=0.94 $Y2=1.19
r94 38 39 145.28 $w=1.7e-07 $l=1.7e-07 $layer=licon1_POLY $count=1 $X=1.28
+ $Y=1.16 $X2=1.28 $Y2=1.16
r95 36 46 19.9956 $w=2.7e-07 $l=9e-08 $layer=POLY_cond $X=1.055 $Y=1.16
+ $X2=0.965 $Y2=1.16
r96 36 38 49.9891 $w=2.7e-07 $l=2.25e-07 $layer=POLY_cond $X=1.055 $Y=1.16
+ $X2=1.28 $Y2=1.16
r97 35 47 19.9956 $w=2.7e-07 $l=9e-08 $layer=POLY_cond $X=1.345 $Y=1.16
+ $X2=1.435 $Y2=1.16
r98 35 38 14.4413 $w=2.7e-07 $l=6.5e-08 $layer=POLY_cond $X=1.345 $Y=1.16
+ $X2=1.28 $Y2=1.16
r99 33 45 10.6708 $w=2.68e-07 $l=2.5e-07 $layer=LI1_cond $X=0.69 $Y=1.19
+ $X2=0.94 $Y2=1.19
r100 29 53 12.2893 $w=1.8e-07 $l=1.35e-07 $layer=POLY_cond $X=1.905 $Y=1.295
+ $X2=1.905 $Y2=1.16
r101 29 31 268.21 $w=1.8e-07 $l=6.9e-07 $layer=POLY_cond $X=1.905 $Y=1.295
+ $X2=1.905 $Y2=1.985
r102 25 52 16.5046 $w=1.5e-07 $l=1.35e-07 $layer=POLY_cond $X=1.88 $Y=1.025
+ $X2=1.88 $Y2=1.16
r103 25 27 238.436 $w=1.5e-07 $l=4.65e-07 $layer=POLY_cond $X=1.88 $Y=1.025
+ $X2=1.88 $Y2=0.56
r104 21 48 16.5046 $w=1.5e-07 $l=1.35e-07 $layer=POLY_cond $X=1.46 $Y=1.025
+ $X2=1.46 $Y2=1.16
r105 21 23 238.436 $w=1.5e-07 $l=4.65e-07 $layer=POLY_cond $X=1.46 $Y=1.025
+ $X2=1.46 $Y2=0.56
r106 17 47 12.2893 $w=1.8e-07 $l=1.35e-07 $layer=POLY_cond $X=1.435 $Y=1.295
+ $X2=1.435 $Y2=1.16
r107 17 19 268.21 $w=1.8e-07 $l=6.9e-07 $layer=POLY_cond $X=1.435 $Y=1.295
+ $X2=1.435 $Y2=1.985
r108 13 46 12.2893 $w=1.8e-07 $l=1.35e-07 $layer=POLY_cond $X=0.965 $Y=1.295
+ $X2=0.965 $Y2=1.16
r109 13 15 268.21 $w=1.8e-07 $l=6.9e-07 $layer=POLY_cond $X=0.965 $Y=1.295
+ $X2=0.965 $Y2=1.985
r110 9 44 16.5046 $w=1.5e-07 $l=1.35e-07 $layer=POLY_cond $X=0.94 $Y=1.025
+ $X2=0.94 $Y2=1.16
r111 9 11 238.436 $w=1.5e-07 $l=4.65e-07 $layer=POLY_cond $X=0.94 $Y=1.025
+ $X2=0.94 $Y2=0.56
r112 5 42 16.5046 $w=1.5e-07 $l=1.35e-07 $layer=POLY_cond $X=0.52 $Y=1.025
+ $X2=0.52 $Y2=1.16
r113 5 7 238.436 $w=1.5e-07 $l=4.65e-07 $layer=POLY_cond $X=0.52 $Y=1.025
+ $X2=0.52 $Y2=0.56
r114 1 40 12.2893 $w=1.8e-07 $l=1.35e-07 $layer=POLY_cond $X=0.495 $Y=1.295
+ $X2=0.495 $Y2=1.16
r115 1 3 268.21 $w=1.8e-07 $l=6.9e-07 $layer=POLY_cond $X=0.495 $Y=1.295
+ $X2=0.495 $Y2=1.985
.ends

.subckt PM_SKY130_FD_SC_HDLL__MUXB4TO1_4%A_559_265# 1 2 7 9 10 11 12 14 15 17 19
+ 20 22 24 25 26 27 34 37 40 45 47 48 49 50
c117 20 0 1.10627e-19 $X=4.215 $Y=1.4
r118 45 49 8.46218 $w=3.28e-07 $l=1.65e-07 $layer=LI1_cond $X=5.585 $Y=1.77
+ $X2=5.585 $Y2=1.605
r119 41 48 8.61065 $w=1.7e-07 $l=1.65e-07 $layer=LI1_cond $X=5.505 $Y=1.395
+ $X2=5.505 $Y2=1.23
r120 41 49 13.7005 $w=1.68e-07 $l=2.1e-07 $layer=LI1_cond $X=5.505 $Y=1.395
+ $X2=5.505 $Y2=1.605
r121 40 48 8.61065 $w=1.7e-07 $l=1.65e-07 $layer=LI1_cond $X=5.505 $Y=1.065
+ $X2=5.505 $Y2=1.23
r122 40 47 15.6578 $w=1.68e-07 $l=2.4e-07 $layer=LI1_cond $X=5.505 $Y=1.065
+ $X2=5.505 $Y2=0.825
r123 35 47 6.94937 $w=2.48e-07 $l=1.25e-07 $layer=LI1_cond $X=5.545 $Y=0.7
+ $X2=5.545 $Y2=0.825
r124 35 37 11.7549 $w=2.48e-07 $l=2.55e-07 $layer=LI1_cond $X=5.545 $Y=0.7
+ $X2=5.545 $Y2=0.445
r125 34 50 55.5434 $w=2.7e-07 $l=2.5e-07 $layer=POLY_cond $X=4.875 $Y=1.23
+ $X2=4.625 $Y2=1.23
r126 33 34 145.28 $w=1.7e-07 $l=1.7e-07 $layer=licon1_POLY $count=1 $X=4.875
+ $Y=1.23 $X2=4.875 $Y2=1.23
r127 30 50 15.1848 $w=2.93e-07 $l=1.14237e-07 $layer=POLY_cond $X=4.535 $Y=1.285
+ $X2=4.625 $Y2=1.23
r128 29 33 11.8737 $w=3.28e-07 $l=3.4e-07 $layer=LI1_cond $X=4.535 $Y=1.23
+ $X2=4.875 $Y2=1.23
r129 29 30 145.28 $w=1.7e-07 $l=1.7e-07 $layer=licon1_POLY $count=1 $X=4.535
+ $Y=1.23 $X2=4.535 $Y2=1.23
r130 27 48 0.89609 $w=3.3e-07 $l=8.5e-08 $layer=LI1_cond $X=5.42 $Y=1.23
+ $X2=5.505 $Y2=1.23
r131 27 33 19.0328 $w=3.28e-07 $l=5.45e-07 $layer=LI1_cond $X=5.42 $Y=1.23
+ $X2=4.875 $Y2=1.23
r132 22 30 37.8362 $w=2.93e-07 $l=3.10805e-07 $layer=POLY_cond $X=4.305 $Y=1.475
+ $X2=4.535 $Y2=1.285
r133 22 24 131.211 $w=1.8e-07 $l=4.9e-07 $layer=POLY_cond $X=4.305 $Y=1.475
+ $X2=4.305 $Y2=1.965
r134 21 26 23.6879 $w=1.5e-07 $l=9e-08 $layer=POLY_cond $X=3.925 $Y=1.4
+ $X2=3.835 $Y2=1.4
r135 20 22 26.2537 $w=2.93e-07 $l=1.21861e-07 $layer=POLY_cond $X=4.215 $Y=1.4
+ $X2=4.305 $Y2=1.475
r136 20 21 148.702 $w=1.5e-07 $l=2.9e-07 $layer=POLY_cond $X=4.215 $Y=1.4
+ $X2=3.925 $Y2=1.4
r137 17 26 2.7459 $w=1.8e-07 $l=7.5e-08 $layer=POLY_cond $X=3.835 $Y=1.475
+ $X2=3.835 $Y2=1.4
r138 17 19 131.211 $w=1.8e-07 $l=4.9e-07 $layer=POLY_cond $X=3.835 $Y=1.475
+ $X2=3.835 $Y2=1.965
r139 16 25 23.6879 $w=1.5e-07 $l=9e-08 $layer=POLY_cond $X=3.455 $Y=1.4
+ $X2=3.365 $Y2=1.4
r140 15 26 23.6879 $w=1.5e-07 $l=9e-08 $layer=POLY_cond $X=3.745 $Y=1.4
+ $X2=3.835 $Y2=1.4
r141 15 16 148.702 $w=1.5e-07 $l=2.9e-07 $layer=POLY_cond $X=3.745 $Y=1.4
+ $X2=3.455 $Y2=1.4
r142 12 25 2.7459 $w=1.8e-07 $l=7.5e-08 $layer=POLY_cond $X=3.365 $Y=1.475
+ $X2=3.365 $Y2=1.4
r143 12 14 131.211 $w=1.8e-07 $l=4.9e-07 $layer=POLY_cond $X=3.365 $Y=1.475
+ $X2=3.365 $Y2=1.965
r144 10 25 23.6879 $w=1.5e-07 $l=9e-08 $layer=POLY_cond $X=3.275 $Y=1.4
+ $X2=3.365 $Y2=1.4
r145 10 11 148.702 $w=1.5e-07 $l=2.9e-07 $layer=POLY_cond $X=3.275 $Y=1.4
+ $X2=2.985 $Y2=1.4
r146 7 11 27.2212 $w=1.5e-07 $l=1.21861e-07 $layer=POLY_cond $X=2.895 $Y=1.475
+ $X2=2.985 $Y2=1.4
r147 7 9 131.211 $w=1.8e-07 $l=4.9e-07 $layer=POLY_cond $X=2.895 $Y=1.475
+ $X2=2.895 $Y2=1.965
r148 2 45 300 $w=1.7e-07 $l=2.05061e-07 $layer=licon1_PDIFF $count=2 $X=5.44
+ $Y=1.625 $X2=5.585 $Y2=1.77
r149 1 37 182 $w=1.7e-07 $l=2.69165e-07 $layer=licon1_NDIFF $count=1 $X=5.45
+ $Y=0.235 $X2=5.585 $Y2=0.445
.ends

.subckt PM_SKY130_FD_SC_HDLL__MUXB4TO1_4%S[0] 1 3 4 5 6 8 9 11 13 14 16 18 19 22
+ 23 24 26 27 29 30 32 33 35 37 38 40 41 42 43 44 45
c115 11 0 1.3204e-19 $X=3.66 $Y=0.255
r116 45 49 72.64 $w=1.7e-07 $l=3.4e-07 $layer=licon1_POLY $count=2 $X=6.2
+ $Y=1.16 $X2=6.2 $Y2=1.16
r117 38 49 64.8801 $w=3.52e-07 $l=4.82525e-07 $layer=POLY_cond $X=5.82 $Y=1.55
+ $X2=6.027 $Y2=1.16
r118 38 40 129.872 $w=1.8e-07 $l=4.85e-07 $layer=POLY_cond $X=5.82 $Y=1.55
+ $X2=5.82 $Y2=2.035
r119 35 37 93.1867 $w=1.5e-07 $l=2.9e-07 $layer=POLY_cond $X=5.795 $Y=0.735
+ $X2=5.795 $Y2=0.445
r120 34 44 13.9575 $w=1.5e-07 $l=1e-07 $layer=POLY_cond $X=5.45 $Y=0.81 $X2=5.35
+ $Y2=0.81
r121 33 49 47.9261 $w=3.52e-07 $l=4.79531e-07 $layer=POLY_cond $X=5.72 $Y=0.81
+ $X2=6.027 $Y2=1.16
r122 33 35 26.4837 $w=3.52e-07 $l=1.06066e-07 $layer=POLY_cond $X=5.72 $Y=0.81
+ $X2=5.795 $Y2=0.735
r123 33 34 138.447 $w=1.5e-07 $l=2.7e-07 $layer=POLY_cond $X=5.72 $Y=0.81
+ $X2=5.45 $Y2=0.81
r124 30 44 10.2464 $w=1.5e-07 $l=8.66025e-08 $layer=POLY_cond $X=5.375 $Y=0.735
+ $X2=5.35 $Y2=0.81
r125 30 32 93.1867 $w=1.5e-07 $l=2.9e-07 $layer=POLY_cond $X=5.375 $Y=0.735
+ $X2=5.375 $Y2=0.445
r126 27 29 129.872 $w=1.8e-07 $l=4.85e-07 $layer=POLY_cond $X=5.35 $Y=1.55
+ $X2=5.35 $Y2=2.035
r127 26 27 33.5616 $w=2e-07 $l=1e-07 $layer=POLY_cond $X=5.35 $Y=1.45 $X2=5.35
+ $Y2=1.55
r128 25 44 10.2464 $w=2e-07 $l=7.5e-08 $layer=POLY_cond $X=5.35 $Y=0.885
+ $X2=5.35 $Y2=0.81
r129 25 26 187.341 $w=2e-07 $l=5.65e-07 $layer=POLY_cond $X=5.35 $Y=0.885
+ $X2=5.35 $Y2=1.45
r130 23 44 13.9575 $w=1.5e-07 $l=1e-07 $layer=POLY_cond $X=5.25 $Y=0.81 $X2=5.35
+ $Y2=0.81
r131 23 24 171.777 $w=1.5e-07 $l=3.35e-07 $layer=POLY_cond $X=5.25 $Y=0.81
+ $X2=4.915 $Y2=0.81
r132 22 24 26.9307 $w=1.5e-07 $l=1.06066e-07 $layer=POLY_cond $X=4.84 $Y=0.735
+ $X2=4.915 $Y2=0.81
r133 21 22 246.128 $w=1.5e-07 $l=4.8e-07 $layer=POLY_cond $X=4.84 $Y=0.255
+ $X2=4.84 $Y2=0.735
r134 20 43 20.4101 $w=1.5e-07 $l=7.5e-08 $layer=POLY_cond $X=4.155 $Y=0.18
+ $X2=4.08 $Y2=0.18
r135 19 21 26.9307 $w=1.5e-07 $l=1.06066e-07 $layer=POLY_cond $X=4.765 $Y=0.18
+ $X2=4.84 $Y2=0.255
r136 19 20 312.787 $w=1.5e-07 $l=6.1e-07 $layer=POLY_cond $X=4.765 $Y=0.18
+ $X2=4.155 $Y2=0.18
r137 16 43 5.30422 $w=1.5e-07 $l=7.5e-08 $layer=POLY_cond $X=4.08 $Y=0.255
+ $X2=4.08 $Y2=0.18
r138 16 18 107.647 $w=1.5e-07 $l=3.35e-07 $layer=POLY_cond $X=4.08 $Y=0.255
+ $X2=4.08 $Y2=0.59
r139 15 42 20.4101 $w=1.5e-07 $l=7.5e-08 $layer=POLY_cond $X=3.735 $Y=0.18
+ $X2=3.66 $Y2=0.18
r140 14 43 20.4101 $w=1.5e-07 $l=7.5e-08 $layer=POLY_cond $X=4.005 $Y=0.18
+ $X2=4.08 $Y2=0.18
r141 14 15 138.447 $w=1.5e-07 $l=2.7e-07 $layer=POLY_cond $X=4.005 $Y=0.18
+ $X2=3.735 $Y2=0.18
r142 11 42 5.30422 $w=1.5e-07 $l=7.5e-08 $layer=POLY_cond $X=3.66 $Y=0.255
+ $X2=3.66 $Y2=0.18
r143 11 13 107.647 $w=1.5e-07 $l=3.35e-07 $layer=POLY_cond $X=3.66 $Y=0.255
+ $X2=3.66 $Y2=0.59
r144 10 41 20.4101 $w=1.5e-07 $l=7.5e-08 $layer=POLY_cond $X=3.315 $Y=0.18
+ $X2=3.24 $Y2=0.18
r145 9 42 20.4101 $w=1.5e-07 $l=7.5e-08 $layer=POLY_cond $X=3.585 $Y=0.18
+ $X2=3.66 $Y2=0.18
r146 9 10 138.447 $w=1.5e-07 $l=2.7e-07 $layer=POLY_cond $X=3.585 $Y=0.18
+ $X2=3.315 $Y2=0.18
r147 6 41 5.30422 $w=1.5e-07 $l=7.5e-08 $layer=POLY_cond $X=3.24 $Y=0.255
+ $X2=3.24 $Y2=0.18
r148 6 8 107.647 $w=1.5e-07 $l=3.35e-07 $layer=POLY_cond $X=3.24 $Y=0.255
+ $X2=3.24 $Y2=0.59
r149 4 41 20.4101 $w=1.5e-07 $l=7.5e-08 $layer=POLY_cond $X=3.165 $Y=0.18
+ $X2=3.24 $Y2=0.18
r150 4 5 138.447 $w=1.5e-07 $l=2.7e-07 $layer=POLY_cond $X=3.165 $Y=0.18
+ $X2=2.895 $Y2=0.18
r151 1 5 26.9307 $w=1.5e-07 $l=1.06066e-07 $layer=POLY_cond $X=2.82 $Y=0.255
+ $X2=2.895 $Y2=0.18
r152 1 3 107.647 $w=1.5e-07 $l=3.35e-07 $layer=POLY_cond $X=2.82 $Y=0.255
+ $X2=2.82 $Y2=0.59
.ends

.subckt PM_SKY130_FD_SC_HDLL__MUXB4TO1_4%S[1] 1 3 5 6 8 9 11 13 15 16 18 19 22
+ 23 24 25 27 28 30 32 33 35 37 38 40 42 43 44 45 46 47 52
c118 30 0 1.3204e-19 $X=9.22 $Y=0.255
r119 47 52 12.2229 $w=3.28e-07 $l=3.5e-07 $layer=LI1_cond $X=6.67 $Y=1.16
+ $X2=7.02 $Y2=1.16
r120 40 42 107.647 $w=1.5e-07 $l=3.35e-07 $layer=POLY_cond $X=10.06 $Y=0.255
+ $X2=10.06 $Y2=0.59
r121 39 46 20.4101 $w=1.5e-07 $l=7.5e-08 $layer=POLY_cond $X=9.715 $Y=0.18
+ $X2=9.64 $Y2=0.18
r122 38 40 26.9307 $w=1.5e-07 $l=1.06066e-07 $layer=POLY_cond $X=9.985 $Y=0.18
+ $X2=10.06 $Y2=0.255
r123 38 39 138.447 $w=1.5e-07 $l=2.7e-07 $layer=POLY_cond $X=9.985 $Y=0.18
+ $X2=9.715 $Y2=0.18
r124 35 46 5.30422 $w=1.5e-07 $l=7.5e-08 $layer=POLY_cond $X=9.64 $Y=0.255
+ $X2=9.64 $Y2=0.18
r125 35 37 107.647 $w=1.5e-07 $l=3.35e-07 $layer=POLY_cond $X=9.64 $Y=0.255
+ $X2=9.64 $Y2=0.59
r126 34 45 20.4101 $w=1.5e-07 $l=7.5e-08 $layer=POLY_cond $X=9.295 $Y=0.18
+ $X2=9.22 $Y2=0.18
r127 33 46 20.4101 $w=1.5e-07 $l=7.5e-08 $layer=POLY_cond $X=9.565 $Y=0.18
+ $X2=9.64 $Y2=0.18
r128 33 34 138.447 $w=1.5e-07 $l=2.7e-07 $layer=POLY_cond $X=9.565 $Y=0.18
+ $X2=9.295 $Y2=0.18
r129 30 45 5.30422 $w=1.5e-07 $l=7.5e-08 $layer=POLY_cond $X=9.22 $Y=0.255
+ $X2=9.22 $Y2=0.18
r130 30 32 107.647 $w=1.5e-07 $l=3.35e-07 $layer=POLY_cond $X=9.22 $Y=0.255
+ $X2=9.22 $Y2=0.59
r131 29 44 20.4101 $w=1.5e-07 $l=7.5e-08 $layer=POLY_cond $X=8.875 $Y=0.18
+ $X2=8.8 $Y2=0.18
r132 28 45 20.4101 $w=1.5e-07 $l=7.5e-08 $layer=POLY_cond $X=9.145 $Y=0.18
+ $X2=9.22 $Y2=0.18
r133 28 29 138.447 $w=1.5e-07 $l=2.7e-07 $layer=POLY_cond $X=9.145 $Y=0.18
+ $X2=8.875 $Y2=0.18
r134 25 44 5.30422 $w=1.5e-07 $l=7.5e-08 $layer=POLY_cond $X=8.8 $Y=0.255
+ $X2=8.8 $Y2=0.18
r135 25 27 107.647 $w=1.5e-07 $l=3.35e-07 $layer=POLY_cond $X=8.8 $Y=0.255
+ $X2=8.8 $Y2=0.59
r136 23 44 20.4101 $w=1.5e-07 $l=7.5e-08 $layer=POLY_cond $X=8.725 $Y=0.18
+ $X2=8.8 $Y2=0.18
r137 23 24 312.787 $w=1.5e-07 $l=6.1e-07 $layer=POLY_cond $X=8.725 $Y=0.18
+ $X2=8.115 $Y2=0.18
r138 21 24 26.9307 $w=1.5e-07 $l=1.06066e-07 $layer=POLY_cond $X=8.04 $Y=0.255
+ $X2=8.115 $Y2=0.18
r139 21 22 246.128 $w=1.5e-07 $l=4.8e-07 $layer=POLY_cond $X=8.04 $Y=0.255
+ $X2=8.04 $Y2=0.735
r140 20 43 13.9575 $w=1.5e-07 $l=1e-07 $layer=POLY_cond $X=7.63 $Y=0.81 $X2=7.53
+ $Y2=0.81
r141 19 22 26.9307 $w=1.5e-07 $l=1.06066e-07 $layer=POLY_cond $X=7.965 $Y=0.81
+ $X2=8.04 $Y2=0.735
r142 19 20 171.777 $w=1.5e-07 $l=3.35e-07 $layer=POLY_cond $X=7.965 $Y=0.81
+ $X2=7.63 $Y2=0.81
r143 16 18 129.872 $w=1.8e-07 $l=4.85e-07 $layer=POLY_cond $X=7.53 $Y=1.55
+ $X2=7.53 $Y2=2.035
r144 15 16 33.5616 $w=2e-07 $l=1e-07 $layer=POLY_cond $X=7.53 $Y=1.45 $X2=7.53
+ $Y2=1.55
r145 14 43 10.2464 $w=2e-07 $l=7.5e-08 $layer=POLY_cond $X=7.53 $Y=0.885
+ $X2=7.53 $Y2=0.81
r146 14 15 187.341 $w=2e-07 $l=5.65e-07 $layer=POLY_cond $X=7.53 $Y=0.885
+ $X2=7.53 $Y2=1.45
r147 11 43 10.2464 $w=1.5e-07 $l=8.66025e-08 $layer=POLY_cond $X=7.505 $Y=0.735
+ $X2=7.53 $Y2=0.81
r148 11 13 93.1867 $w=1.5e-07 $l=2.9e-07 $layer=POLY_cond $X=7.505 $Y=0.735
+ $X2=7.505 $Y2=0.445
r149 10 49 7.64856 $w=1.5e-07 $l=1e-07 $layer=POLY_cond $X=7.16 $Y=0.81 $X2=7.06
+ $Y2=0.81
r150 9 43 13.9575 $w=1.5e-07 $l=1e-07 $layer=POLY_cond $X=7.43 $Y=0.81 $X2=7.53
+ $Y2=0.81
r151 9 10 138.447 $w=1.5e-07 $l=2.7e-07 $layer=POLY_cond $X=7.43 $Y=0.81
+ $X2=7.16 $Y2=0.81
r152 6 49 21.4346 $w=1.84e-07 $l=8.66025e-08 $layer=POLY_cond $X=7.085 $Y=0.735
+ $X2=7.06 $Y2=0.81
r153 6 8 93.1867 $w=1.5e-07 $l=2.9e-07 $layer=POLY_cond $X=7.085 $Y=0.735
+ $X2=7.085 $Y2=0.445
r154 3 5 129.872 $w=1.8e-07 $l=4.85e-07 $layer=POLY_cond $X=7.06 $Y=1.55
+ $X2=7.06 $Y2=2.035
r155 1 3 102.163 $w=1.84e-07 $l=3.9e-07 $layer=POLY_cond $X=7.06 $Y=1.16
+ $X2=7.06 $Y2=1.55
r156 1 52 72.64 $w=1.7e-07 $l=3.4e-07 $layer=licon1_POLY $count=2 $X=7.02
+ $Y=1.16 $X2=7.02 $Y2=1.16
r157 1 49 91.6848 $w=1.84e-07 $l=3.5e-07 $layer=POLY_cond $X=7.06 $Y=1.16
+ $X2=7.06 $Y2=0.81
.ends

.subckt PM_SKY130_FD_SC_HDLL__MUXB4TO1_4%A_1430_325# 1 2 7 9 10 11 12 14 15 17
+ 19 20 22 24 25 26 29 33 36 44 47 48 49 50
c116 20 0 1.74242e-19 $X=9.895 $Y=1.4
r117 45 50 15.1848 $w=2.93e-07 $l=1.14237e-07 $layer=POLY_cond $X=8.345 $Y=1.285
+ $X2=8.255 $Y2=1.23
r118 44 45 145.28 $w=1.7e-07 $l=1.7e-07 $layer=licon1_POLY $count=1 $X=8.345
+ $Y=1.23 $X2=8.345 $Y2=1.23
r119 42 50 55.5434 $w=2.7e-07 $l=2.5e-07 $layer=POLY_cond $X=8.005 $Y=1.23
+ $X2=8.255 $Y2=1.23
r120 41 44 11.8737 $w=3.28e-07 $l=3.4e-07 $layer=LI1_cond $X=8.005 $Y=1.23
+ $X2=8.345 $Y2=1.23
r121 41 42 145.28 $w=1.7e-07 $l=1.7e-07 $layer=licon1_POLY $count=1 $X=8.005
+ $Y=1.23 $X2=8.005 $Y2=1.23
r122 39 49 0.89609 $w=3.3e-07 $l=8.5e-08 $layer=LI1_cond $X=7.46 $Y=1.23
+ $X2=7.375 $Y2=1.23
r123 39 41 19.0328 $w=3.28e-07 $l=5.45e-07 $layer=LI1_cond $X=7.46 $Y=1.23
+ $X2=8.005 $Y2=1.23
r124 37 49 8.61065 $w=1.7e-07 $l=1.65e-07 $layer=LI1_cond $X=7.375 $Y=1.395
+ $X2=7.375 $Y2=1.23
r125 37 47 13.7005 $w=1.68e-07 $l=2.1e-07 $layer=LI1_cond $X=7.375 $Y=1.395
+ $X2=7.375 $Y2=1.605
r126 36 49 8.61065 $w=1.7e-07 $l=1.65e-07 $layer=LI1_cond $X=7.375 $Y=1.065
+ $X2=7.375 $Y2=1.23
r127 36 48 15.6578 $w=1.68e-07 $l=2.4e-07 $layer=LI1_cond $X=7.375 $Y=1.065
+ $X2=7.375 $Y2=0.825
r128 31 48 6.94937 $w=2.48e-07 $l=1.25e-07 $layer=LI1_cond $X=7.335 $Y=0.7
+ $X2=7.335 $Y2=0.825
r129 31 33 11.7549 $w=2.48e-07 $l=2.55e-07 $layer=LI1_cond $X=7.335 $Y=0.7
+ $X2=7.335 $Y2=0.445
r130 29 47 8.46218 $w=3.28e-07 $l=1.65e-07 $layer=LI1_cond $X=7.295 $Y=1.77
+ $X2=7.295 $Y2=1.605
r131 22 24 131.211 $w=1.8e-07 $l=4.9e-07 $layer=POLY_cond $X=9.985 $Y=1.475
+ $X2=9.985 $Y2=1.965
r132 21 26 23.6879 $w=1.5e-07 $l=9e-08 $layer=POLY_cond $X=9.605 $Y=1.4
+ $X2=9.515 $Y2=1.4
r133 20 22 27.2212 $w=1.5e-07 $l=1.21861e-07 $layer=POLY_cond $X=9.895 $Y=1.4
+ $X2=9.985 $Y2=1.475
r134 20 21 148.702 $w=1.5e-07 $l=2.9e-07 $layer=POLY_cond $X=9.895 $Y=1.4
+ $X2=9.605 $Y2=1.4
r135 17 26 2.7459 $w=1.8e-07 $l=7.5e-08 $layer=POLY_cond $X=9.515 $Y=1.475
+ $X2=9.515 $Y2=1.4
r136 17 19 131.211 $w=1.8e-07 $l=4.9e-07 $layer=POLY_cond $X=9.515 $Y=1.475
+ $X2=9.515 $Y2=1.965
r137 16 25 23.6879 $w=1.5e-07 $l=9e-08 $layer=POLY_cond $X=9.135 $Y=1.4
+ $X2=9.045 $Y2=1.4
r138 15 26 23.6879 $w=1.5e-07 $l=9e-08 $layer=POLY_cond $X=9.425 $Y=1.4
+ $X2=9.515 $Y2=1.4
r139 15 16 148.702 $w=1.5e-07 $l=2.9e-07 $layer=POLY_cond $X=9.425 $Y=1.4
+ $X2=9.135 $Y2=1.4
r140 12 25 2.7459 $w=1.8e-07 $l=7.5e-08 $layer=POLY_cond $X=9.045 $Y=1.475
+ $X2=9.045 $Y2=1.4
r141 12 14 131.211 $w=1.8e-07 $l=4.9e-07 $layer=POLY_cond $X=9.045 $Y=1.475
+ $X2=9.045 $Y2=1.965
r142 10 25 23.6879 $w=1.5e-07 $l=9e-08 $layer=POLY_cond $X=8.955 $Y=1.4
+ $X2=9.045 $Y2=1.4
r143 10 11 148.702 $w=1.5e-07 $l=2.9e-07 $layer=POLY_cond $X=8.955 $Y=1.4
+ $X2=8.665 $Y2=1.4
r144 7 11 26.2537 $w=2.93e-07 $l=1.21861e-07 $layer=POLY_cond $X=8.575 $Y=1.475
+ $X2=8.665 $Y2=1.4
r145 7 45 37.8362 $w=2.93e-07 $l=3.10805e-07 $layer=POLY_cond $X=8.575 $Y=1.475
+ $X2=8.345 $Y2=1.285
r146 7 9 131.211 $w=1.8e-07 $l=4.9e-07 $layer=POLY_cond $X=8.575 $Y=1.475
+ $X2=8.575 $Y2=1.965
r147 2 29 300 $w=1.7e-07 $l=2.05061e-07 $layer=licon1_PDIFF $count=2 $X=7.15
+ $Y=1.625 $X2=7.295 $Y2=1.77
r148 1 33 182 $w=1.7e-07 $l=2.69165e-07 $layer=licon1_NDIFF $count=1 $X=7.16
+ $Y=0.235 $X2=7.295 $Y2=0.445
.ends

.subckt PM_SKY130_FD_SC_HDLL__MUXB4TO1_4%D[1] 3 7 11 15 19 23 27 31 33 35 36 52
+ 54
r86 53 54 5.55434 $w=2.7e-07 $l=2.5e-08 $layer=POLY_cond $X=12.36 $Y=1.16
+ $X2=12.385 $Y2=1.16
r87 51 53 17.7739 $w=2.7e-07 $l=8e-08 $layer=POLY_cond $X=12.28 $Y=1.16
+ $X2=12.36 $Y2=1.16
r88 51 52 72.64 $w=1.7e-07 $l=3.4e-07 $layer=licon1_POLY $count=2 $X=12.28
+ $Y=1.16 $X2=12.28 $Y2=1.16
r89 49 51 75.5391 $w=2.7e-07 $l=3.4e-07 $layer=POLY_cond $X=11.94 $Y=1.16
+ $X2=12.28 $Y2=1.16
r90 48 49 5.55434 $w=2.7e-07 $l=2.5e-08 $layer=POLY_cond $X=11.915 $Y=1.16
+ $X2=11.94 $Y2=1.16
r91 46 47 5.55434 $w=2.7e-07 $l=2.5e-08 $layer=POLY_cond $X=11.42 $Y=1.16
+ $X2=11.445 $Y2=1.16
r92 44 46 35.5478 $w=2.7e-07 $l=1.6e-07 $layer=POLY_cond $X=11.26 $Y=1.16
+ $X2=11.42 $Y2=1.16
r93 44 45 145.28 $w=1.7e-07 $l=1.7e-07 $layer=licon1_POLY $count=1 $X=11.26
+ $Y=1.16 $X2=11.26 $Y2=1.16
r94 42 44 57.7652 $w=2.7e-07 $l=2.6e-07 $layer=POLY_cond $X=11 $Y=1.16 $X2=11.26
+ $Y2=1.16
r95 40 42 5.55434 $w=2.7e-07 $l=2.5e-08 $layer=POLY_cond $X=10.975 $Y=1.16
+ $X2=11 $Y2=1.16
r96 39 45 14.5122 $w=2.68e-07 $l=3.4e-07 $layer=LI1_cond $X=11.6 $Y=1.19
+ $X2=11.26 $Y2=1.19
r97 38 39 145.28 $w=1.7e-07 $l=1.7e-07 $layer=licon1_POLY $count=1 $X=11.6
+ $Y=1.16 $X2=11.6 $Y2=1.16
r98 36 47 19.9956 $w=2.7e-07 $l=9e-08 $layer=POLY_cond $X=11.535 $Y=1.16
+ $X2=11.445 $Y2=1.16
r99 36 38 14.4413 $w=2.7e-07 $l=6.5e-08 $layer=POLY_cond $X=11.535 $Y=1.16
+ $X2=11.6 $Y2=1.16
r100 35 48 19.9956 $w=2.7e-07 $l=9e-08 $layer=POLY_cond $X=11.825 $Y=1.16
+ $X2=11.915 $Y2=1.16
r101 35 38 49.9891 $w=2.7e-07 $l=2.25e-07 $layer=POLY_cond $X=11.825 $Y=1.16
+ $X2=11.6 $Y2=1.16
r102 33 52 3.84148 $w=2.68e-07 $l=9e-08 $layer=LI1_cond $X=12.19 $Y=1.19
+ $X2=12.28 $Y2=1.19
r103 33 39 25.183 $w=2.68e-07 $l=5.9e-07 $layer=LI1_cond $X=12.19 $Y=1.19
+ $X2=11.6 $Y2=1.19
r104 29 54 12.2893 $w=1.8e-07 $l=1.35e-07 $layer=POLY_cond $X=12.385 $Y=1.295
+ $X2=12.385 $Y2=1.16
r105 29 31 268.21 $w=1.8e-07 $l=6.9e-07 $layer=POLY_cond $X=12.385 $Y=1.295
+ $X2=12.385 $Y2=1.985
r106 25 53 16.5046 $w=1.5e-07 $l=1.35e-07 $layer=POLY_cond $X=12.36 $Y=1.025
+ $X2=12.36 $Y2=1.16
r107 25 27 238.436 $w=1.5e-07 $l=4.65e-07 $layer=POLY_cond $X=12.36 $Y=1.025
+ $X2=12.36 $Y2=0.56
r108 21 49 16.5046 $w=1.5e-07 $l=1.35e-07 $layer=POLY_cond $X=11.94 $Y=1.025
+ $X2=11.94 $Y2=1.16
r109 21 23 238.436 $w=1.5e-07 $l=4.65e-07 $layer=POLY_cond $X=11.94 $Y=1.025
+ $X2=11.94 $Y2=0.56
r110 17 48 12.2893 $w=1.8e-07 $l=1.35e-07 $layer=POLY_cond $X=11.915 $Y=1.295
+ $X2=11.915 $Y2=1.16
r111 17 19 268.21 $w=1.8e-07 $l=6.9e-07 $layer=POLY_cond $X=11.915 $Y=1.295
+ $X2=11.915 $Y2=1.985
r112 13 47 12.2893 $w=1.8e-07 $l=1.35e-07 $layer=POLY_cond $X=11.445 $Y=1.295
+ $X2=11.445 $Y2=1.16
r113 13 15 268.21 $w=1.8e-07 $l=6.9e-07 $layer=POLY_cond $X=11.445 $Y=1.295
+ $X2=11.445 $Y2=1.985
r114 9 46 16.5046 $w=1.5e-07 $l=1.35e-07 $layer=POLY_cond $X=11.42 $Y=1.025
+ $X2=11.42 $Y2=1.16
r115 9 11 238.436 $w=1.5e-07 $l=4.65e-07 $layer=POLY_cond $X=11.42 $Y=1.025
+ $X2=11.42 $Y2=0.56
r116 5 42 16.5046 $w=1.5e-07 $l=1.35e-07 $layer=POLY_cond $X=11 $Y=1.025 $X2=11
+ $Y2=1.16
r117 5 7 238.436 $w=1.5e-07 $l=4.65e-07 $layer=POLY_cond $X=11 $Y=1.025 $X2=11
+ $Y2=0.56
r118 1 40 12.2893 $w=1.8e-07 $l=1.35e-07 $layer=POLY_cond $X=10.975 $Y=1.295
+ $X2=10.975 $Y2=1.16
r119 1 3 268.21 $w=1.8e-07 $l=6.9e-07 $layer=POLY_cond $X=10.975 $Y=1.295
+ $X2=10.975 $Y2=1.985
.ends

.subckt PM_SKY130_FD_SC_HDLL__MUXB4TO1_4%D[2] 3 7 11 15 19 23 27 31 33 35 36 51
+ 53
r88 52 53 5.55434 $w=2.7e-07 $l=2.5e-08 $layer=POLY_cond $X=14.76 $Y=1.16
+ $X2=14.785 $Y2=1.16
r89 50 52 57.7652 $w=2.7e-07 $l=2.6e-07 $layer=POLY_cond $X=14.5 $Y=1.16
+ $X2=14.76 $Y2=1.16
r90 50 51 145.28 $w=1.7e-07 $l=1.7e-07 $layer=licon1_POLY $count=1 $X=14.5
+ $Y=1.16 $X2=14.5 $Y2=1.16
r91 48 50 35.5478 $w=2.7e-07 $l=1.6e-07 $layer=POLY_cond $X=14.34 $Y=1.16
+ $X2=14.5 $Y2=1.16
r92 47 48 5.55434 $w=2.7e-07 $l=2.5e-08 $layer=POLY_cond $X=14.315 $Y=1.16
+ $X2=14.34 $Y2=1.16
r93 44 46 5.55434 $w=2.7e-07 $l=2.5e-08 $layer=POLY_cond $X=13.82 $Y=1.16
+ $X2=13.845 $Y2=1.16
r94 44 45 72.64 $w=1.7e-07 $l=3.4e-07 $layer=licon1_POLY $count=2 $X=13.82
+ $Y=1.16 $X2=13.82 $Y2=1.16
r95 42 44 93.313 $w=2.7e-07 $l=4.2e-07 $layer=POLY_cond $X=13.4 $Y=1.16
+ $X2=13.82 $Y2=1.16
r96 40 42 5.55434 $w=2.7e-07 $l=2.5e-08 $layer=POLY_cond $X=13.375 $Y=1.16
+ $X2=13.4 $Y2=1.16
r97 39 51 14.5122 $w=2.68e-07 $l=3.4e-07 $layer=LI1_cond $X=14.16 $Y=1.19
+ $X2=14.5 $Y2=1.19
r98 39 45 14.5122 $w=2.68e-07 $l=3.4e-07 $layer=LI1_cond $X=14.16 $Y=1.19
+ $X2=13.82 $Y2=1.19
r99 38 39 145.28 $w=1.7e-07 $l=1.7e-07 $layer=licon1_POLY $count=1 $X=14.16
+ $Y=1.16 $X2=14.16 $Y2=1.16
r100 36 46 19.9956 $w=2.7e-07 $l=9e-08 $layer=POLY_cond $X=13.935 $Y=1.16
+ $X2=13.845 $Y2=1.16
r101 36 38 49.9891 $w=2.7e-07 $l=2.25e-07 $layer=POLY_cond $X=13.935 $Y=1.16
+ $X2=14.16 $Y2=1.16
r102 35 47 19.9956 $w=2.7e-07 $l=9e-08 $layer=POLY_cond $X=14.225 $Y=1.16
+ $X2=14.315 $Y2=1.16
r103 35 38 14.4413 $w=2.7e-07 $l=6.5e-08 $layer=POLY_cond $X=14.225 $Y=1.16
+ $X2=14.16 $Y2=1.16
r104 33 45 10.6708 $w=2.68e-07 $l=2.5e-07 $layer=LI1_cond $X=13.57 $Y=1.19
+ $X2=13.82 $Y2=1.19
r105 29 53 12.2893 $w=1.8e-07 $l=1.35e-07 $layer=POLY_cond $X=14.785 $Y=1.295
+ $X2=14.785 $Y2=1.16
r106 29 31 268.21 $w=1.8e-07 $l=6.9e-07 $layer=POLY_cond $X=14.785 $Y=1.295
+ $X2=14.785 $Y2=1.985
r107 25 52 16.5046 $w=1.5e-07 $l=1.35e-07 $layer=POLY_cond $X=14.76 $Y=1.025
+ $X2=14.76 $Y2=1.16
r108 25 27 238.436 $w=1.5e-07 $l=4.65e-07 $layer=POLY_cond $X=14.76 $Y=1.025
+ $X2=14.76 $Y2=0.56
r109 21 48 16.5046 $w=1.5e-07 $l=1.35e-07 $layer=POLY_cond $X=14.34 $Y=1.025
+ $X2=14.34 $Y2=1.16
r110 21 23 238.436 $w=1.5e-07 $l=4.65e-07 $layer=POLY_cond $X=14.34 $Y=1.025
+ $X2=14.34 $Y2=0.56
r111 17 47 12.2893 $w=1.8e-07 $l=1.35e-07 $layer=POLY_cond $X=14.315 $Y=1.295
+ $X2=14.315 $Y2=1.16
r112 17 19 268.21 $w=1.8e-07 $l=6.9e-07 $layer=POLY_cond $X=14.315 $Y=1.295
+ $X2=14.315 $Y2=1.985
r113 13 46 12.2893 $w=1.8e-07 $l=1.35e-07 $layer=POLY_cond $X=13.845 $Y=1.295
+ $X2=13.845 $Y2=1.16
r114 13 15 268.21 $w=1.8e-07 $l=6.9e-07 $layer=POLY_cond $X=13.845 $Y=1.295
+ $X2=13.845 $Y2=1.985
r115 9 44 16.5046 $w=1.5e-07 $l=1.35e-07 $layer=POLY_cond $X=13.82 $Y=1.025
+ $X2=13.82 $Y2=1.16
r116 9 11 238.436 $w=1.5e-07 $l=4.65e-07 $layer=POLY_cond $X=13.82 $Y=1.025
+ $X2=13.82 $Y2=0.56
r117 5 42 16.5046 $w=1.5e-07 $l=1.35e-07 $layer=POLY_cond $X=13.4 $Y=1.025
+ $X2=13.4 $Y2=1.16
r118 5 7 238.436 $w=1.5e-07 $l=4.65e-07 $layer=POLY_cond $X=13.4 $Y=1.025
+ $X2=13.4 $Y2=0.56
r119 1 40 12.2893 $w=1.8e-07 $l=1.35e-07 $layer=POLY_cond $X=13.375 $Y=1.295
+ $X2=13.375 $Y2=1.16
r120 1 3 268.21 $w=1.8e-07 $l=6.9e-07 $layer=POLY_cond $X=13.375 $Y=1.295
+ $X2=13.375 $Y2=1.985
.ends

.subckt PM_SKY130_FD_SC_HDLL__MUXB4TO1_4%A_3135_265# 1 2 7 9 10 11 12 14 15 17
+ 19 20 22 24 25 26 27 34 37 40 45 47 48 49 50
c119 20 0 1.10627e-19 $X=17.095 $Y=1.4
c120 11 0 1.74242e-19 $X=15.865 $Y=1.4
r121 45 49 8.46218 $w=3.28e-07 $l=1.65e-07 $layer=LI1_cond $X=18.465 $Y=1.77
+ $X2=18.465 $Y2=1.605
r122 41 48 8.61065 $w=1.7e-07 $l=1.65e-07 $layer=LI1_cond $X=18.385 $Y=1.395
+ $X2=18.385 $Y2=1.23
r123 41 49 13.7005 $w=1.68e-07 $l=2.1e-07 $layer=LI1_cond $X=18.385 $Y=1.395
+ $X2=18.385 $Y2=1.605
r124 40 48 8.61065 $w=1.7e-07 $l=1.65e-07 $layer=LI1_cond $X=18.385 $Y=1.065
+ $X2=18.385 $Y2=1.23
r125 40 47 15.6578 $w=1.68e-07 $l=2.4e-07 $layer=LI1_cond $X=18.385 $Y=1.065
+ $X2=18.385 $Y2=0.825
r126 35 47 6.94937 $w=2.48e-07 $l=1.25e-07 $layer=LI1_cond $X=18.425 $Y=0.7
+ $X2=18.425 $Y2=0.825
r127 35 37 11.7549 $w=2.48e-07 $l=2.55e-07 $layer=LI1_cond $X=18.425 $Y=0.7
+ $X2=18.425 $Y2=0.445
r128 34 50 55.5434 $w=2.7e-07 $l=2.5e-07 $layer=POLY_cond $X=17.755 $Y=1.23
+ $X2=17.505 $Y2=1.23
r129 33 34 145.28 $w=1.7e-07 $l=1.7e-07 $layer=licon1_POLY $count=1 $X=17.755
+ $Y=1.23 $X2=17.755 $Y2=1.23
r130 30 50 15.1848 $w=2.93e-07 $l=1.14237e-07 $layer=POLY_cond $X=17.415
+ $Y=1.285 $X2=17.505 $Y2=1.23
r131 29 33 11.8737 $w=3.28e-07 $l=3.4e-07 $layer=LI1_cond $X=17.415 $Y=1.23
+ $X2=17.755 $Y2=1.23
r132 29 30 145.28 $w=1.7e-07 $l=1.7e-07 $layer=licon1_POLY $count=1 $X=17.415
+ $Y=1.23 $X2=17.415 $Y2=1.23
r133 27 48 0.89609 $w=3.3e-07 $l=8.5e-08 $layer=LI1_cond $X=18.3 $Y=1.23
+ $X2=18.385 $Y2=1.23
r134 27 33 19.0328 $w=3.28e-07 $l=5.45e-07 $layer=LI1_cond $X=18.3 $Y=1.23
+ $X2=17.755 $Y2=1.23
r135 22 30 37.8362 $w=2.93e-07 $l=3.10805e-07 $layer=POLY_cond $X=17.185
+ $Y=1.475 $X2=17.415 $Y2=1.285
r136 22 24 131.211 $w=1.8e-07 $l=4.9e-07 $layer=POLY_cond $X=17.185 $Y=1.475
+ $X2=17.185 $Y2=1.965
r137 21 26 23.6879 $w=1.5e-07 $l=9e-08 $layer=POLY_cond $X=16.805 $Y=1.4
+ $X2=16.715 $Y2=1.4
r138 20 22 26.2537 $w=2.93e-07 $l=1.21861e-07 $layer=POLY_cond $X=17.095 $Y=1.4
+ $X2=17.185 $Y2=1.475
r139 20 21 148.702 $w=1.5e-07 $l=2.9e-07 $layer=POLY_cond $X=17.095 $Y=1.4
+ $X2=16.805 $Y2=1.4
r140 17 26 2.7459 $w=1.8e-07 $l=7.5e-08 $layer=POLY_cond $X=16.715 $Y=1.475
+ $X2=16.715 $Y2=1.4
r141 17 19 131.211 $w=1.8e-07 $l=4.9e-07 $layer=POLY_cond $X=16.715 $Y=1.475
+ $X2=16.715 $Y2=1.965
r142 16 25 23.6879 $w=1.5e-07 $l=9e-08 $layer=POLY_cond $X=16.335 $Y=1.4
+ $X2=16.245 $Y2=1.4
r143 15 26 23.6879 $w=1.5e-07 $l=9e-08 $layer=POLY_cond $X=16.625 $Y=1.4
+ $X2=16.715 $Y2=1.4
r144 15 16 148.702 $w=1.5e-07 $l=2.9e-07 $layer=POLY_cond $X=16.625 $Y=1.4
+ $X2=16.335 $Y2=1.4
r145 12 25 2.7459 $w=1.8e-07 $l=7.5e-08 $layer=POLY_cond $X=16.245 $Y=1.475
+ $X2=16.245 $Y2=1.4
r146 12 14 131.211 $w=1.8e-07 $l=4.9e-07 $layer=POLY_cond $X=16.245 $Y=1.475
+ $X2=16.245 $Y2=1.965
r147 10 25 23.6879 $w=1.5e-07 $l=9e-08 $layer=POLY_cond $X=16.155 $Y=1.4
+ $X2=16.245 $Y2=1.4
r148 10 11 148.702 $w=1.5e-07 $l=2.9e-07 $layer=POLY_cond $X=16.155 $Y=1.4
+ $X2=15.865 $Y2=1.4
r149 7 11 27.2212 $w=1.5e-07 $l=1.21861e-07 $layer=POLY_cond $X=15.775 $Y=1.475
+ $X2=15.865 $Y2=1.4
r150 7 9 131.211 $w=1.8e-07 $l=4.9e-07 $layer=POLY_cond $X=15.775 $Y=1.475
+ $X2=15.775 $Y2=1.965
r151 2 45 300 $w=1.7e-07 $l=2.05061e-07 $layer=licon1_PDIFF $count=2 $X=18.32
+ $Y=1.625 $X2=18.465 $Y2=1.77
r152 1 37 182 $w=1.7e-07 $l=2.69165e-07 $layer=licon1_NDIFF $count=1 $X=18.33
+ $Y=0.235 $X2=18.465 $Y2=0.445
.ends

.subckt PM_SKY130_FD_SC_HDLL__MUXB4TO1_4%S[2] 1 3 4 5 6 8 9 11 13 14 16 18 19 22
+ 23 24 26 27 29 30 32 33 35 37 38 40 41 42 43 44 45
c115 11 0 1.3204e-19 $X=16.54 $Y=0.255
r116 45 49 72.64 $w=1.7e-07 $l=3.4e-07 $layer=licon1_POLY $count=2 $X=19.08
+ $Y=1.16 $X2=19.08 $Y2=1.16
r117 38 49 64.8801 $w=3.52e-07 $l=4.82525e-07 $layer=POLY_cond $X=18.7 $Y=1.55
+ $X2=18.907 $Y2=1.16
r118 38 40 129.872 $w=1.8e-07 $l=4.85e-07 $layer=POLY_cond $X=18.7 $Y=1.55
+ $X2=18.7 $Y2=2.035
r119 35 37 93.1867 $w=1.5e-07 $l=2.9e-07 $layer=POLY_cond $X=18.675 $Y=0.735
+ $X2=18.675 $Y2=0.445
r120 34 44 13.9575 $w=1.5e-07 $l=1e-07 $layer=POLY_cond $X=18.33 $Y=0.81
+ $X2=18.23 $Y2=0.81
r121 33 49 47.9261 $w=3.52e-07 $l=4.79531e-07 $layer=POLY_cond $X=18.6 $Y=0.81
+ $X2=18.907 $Y2=1.16
r122 33 35 26.4837 $w=3.52e-07 $l=1.06066e-07 $layer=POLY_cond $X=18.6 $Y=0.81
+ $X2=18.675 $Y2=0.735
r123 33 34 138.447 $w=1.5e-07 $l=2.7e-07 $layer=POLY_cond $X=18.6 $Y=0.81
+ $X2=18.33 $Y2=0.81
r124 30 44 10.2464 $w=1.5e-07 $l=8.66025e-08 $layer=POLY_cond $X=18.255 $Y=0.735
+ $X2=18.23 $Y2=0.81
r125 30 32 93.1867 $w=1.5e-07 $l=2.9e-07 $layer=POLY_cond $X=18.255 $Y=0.735
+ $X2=18.255 $Y2=0.445
r126 27 29 129.872 $w=1.8e-07 $l=4.85e-07 $layer=POLY_cond $X=18.23 $Y=1.55
+ $X2=18.23 $Y2=2.035
r127 26 27 33.5616 $w=2e-07 $l=1e-07 $layer=POLY_cond $X=18.23 $Y=1.45 $X2=18.23
+ $Y2=1.55
r128 25 44 10.2464 $w=2e-07 $l=7.5e-08 $layer=POLY_cond $X=18.23 $Y=0.885
+ $X2=18.23 $Y2=0.81
r129 25 26 187.341 $w=2e-07 $l=5.65e-07 $layer=POLY_cond $X=18.23 $Y=0.885
+ $X2=18.23 $Y2=1.45
r130 23 44 13.9575 $w=1.5e-07 $l=1e-07 $layer=POLY_cond $X=18.13 $Y=0.81
+ $X2=18.23 $Y2=0.81
r131 23 24 171.777 $w=1.5e-07 $l=3.35e-07 $layer=POLY_cond $X=18.13 $Y=0.81
+ $X2=17.795 $Y2=0.81
r132 22 24 26.9307 $w=1.5e-07 $l=1.06066e-07 $layer=POLY_cond $X=17.72 $Y=0.735
+ $X2=17.795 $Y2=0.81
r133 21 22 246.128 $w=1.5e-07 $l=4.8e-07 $layer=POLY_cond $X=17.72 $Y=0.255
+ $X2=17.72 $Y2=0.735
r134 20 43 20.4101 $w=1.5e-07 $l=7.5e-08 $layer=POLY_cond $X=17.035 $Y=0.18
+ $X2=16.96 $Y2=0.18
r135 19 21 26.9307 $w=1.5e-07 $l=1.06066e-07 $layer=POLY_cond $X=17.645 $Y=0.18
+ $X2=17.72 $Y2=0.255
r136 19 20 312.787 $w=1.5e-07 $l=6.1e-07 $layer=POLY_cond $X=17.645 $Y=0.18
+ $X2=17.035 $Y2=0.18