* File: sky130_fd_sc_hdll__muxb16to1_2.pex.spice
* Created: Thu Aug 27 19:11:31 2020
* Program "Calibre xRC"
* Version "v2018.4_34.26"
* Nominal Temperature: 27C
* Circuit Temperature: 27C
* 
.subckt PM_SKY130_FD_SC_HDLL__MUXB16TO1_2%D[0] 3 7 11 15 17 27 29
c51 15 0 5.84221e-22 $X=0.965 $Y=1.985
r52 28 29 5.55434 $w=2.7e-07 $l=2.5e-08 $layer=POLY_cond $X=0.94 $Y=1.16
+ $X2=0.965 $Y2=1.16
r53 26 28 42.213 $w=2.7e-07 $l=1.9e-07 $layer=POLY_cond $X=0.75 $Y=1.16 $X2=0.94
+ $Y2=1.16
r54 26 27 145.28 $w=1.7e-07 $l=1.7e-07 $layer=licon1_POLY $count=1 $X=0.75
+ $Y=1.16 $X2=0.75 $Y2=1.16
r55 24 26 51.1 $w=2.7e-07 $l=2.3e-07 $layer=POLY_cond $X=0.52 $Y=1.16 $X2=0.75
+ $Y2=1.16
r56 23 24 5.55434 $w=2.7e-07 $l=2.5e-08 $layer=POLY_cond $X=0.495 $Y=1.16
+ $X2=0.52 $Y2=1.16
r57 21 27 14.5122 $w=2.68e-07 $l=3.4e-07 $layer=LI1_cond $X=0.41 $Y=1.19
+ $X2=0.75 $Y2=1.19
r58 20 23 18.8848 $w=2.7e-07 $l=8.5e-08 $layer=POLY_cond $X=0.41 $Y=1.16
+ $X2=0.495 $Y2=1.16
r59 20 21 145.28 $w=1.7e-07 $l=1.7e-07 $layer=licon1_POLY $count=1 $X=0.41
+ $Y=1.16 $X2=0.41 $Y2=1.16
r60 17 21 7.68295 $w=2.68e-07 $l=1.8e-07 $layer=LI1_cond $X=0.23 $Y=1.19
+ $X2=0.41 $Y2=1.19
r61 13 29 12.2893 $w=1.8e-07 $l=1.35e-07 $layer=POLY_cond $X=0.965 $Y=1.295
+ $X2=0.965 $Y2=1.16
r62 13 15 268.21 $w=1.8e-07 $l=6.9e-07 $layer=POLY_cond $X=0.965 $Y=1.295
+ $X2=0.965 $Y2=1.985
r63 9 28 16.5046 $w=1.5e-07 $l=1.35e-07 $layer=POLY_cond $X=0.94 $Y=1.025
+ $X2=0.94 $Y2=1.16
r64 9 11 238.436 $w=1.5e-07 $l=4.65e-07 $layer=POLY_cond $X=0.94 $Y=1.025
+ $X2=0.94 $Y2=0.56
r65 5 24 16.5046 $w=1.5e-07 $l=1.35e-07 $layer=POLY_cond $X=0.52 $Y=1.025
+ $X2=0.52 $Y2=1.16
r66 5 7 238.436 $w=1.5e-07 $l=4.65e-07 $layer=POLY_cond $X=0.52 $Y=1.025
+ $X2=0.52 $Y2=0.56
r67 1 23 12.2893 $w=1.8e-07 $l=1.35e-07 $layer=POLY_cond $X=0.495 $Y=1.295
+ $X2=0.495 $Y2=1.16
r68 1 3 268.21 $w=1.8e-07 $l=6.9e-07 $layer=POLY_cond $X=0.495 $Y=1.295
+ $X2=0.495 $Y2=1.985
.ends

.subckt PM_SKY130_FD_SC_HDLL__MUXB16TO1_2%D[8] 3 7 11 15 17 27 29
c52 15 0 5.84221e-22 $X=0.965 $Y=3.455
r53 28 29 5.55434 $w=2.7e-07 $l=2.5e-08 $layer=POLY_cond $X=0.94 $Y=4.28
+ $X2=0.965 $Y2=4.28
r54 26 28 42.213 $w=2.7e-07 $l=1.9e-07 $layer=POLY_cond $X=0.75 $Y=4.28 $X2=0.94
+ $Y2=4.28
r55 26 27 145.28 $w=1.7e-07 $l=1.7e-07 $layer=licon1_POLY $count=1 $X=0.75
+ $Y=4.28 $X2=0.75 $Y2=4.28
r56 24 26 51.1 $w=2.7e-07 $l=2.3e-07 $layer=POLY_cond $X=0.52 $Y=4.28 $X2=0.75
+ $Y2=4.28
r57 23 24 5.55434 $w=2.7e-07 $l=2.5e-08 $layer=POLY_cond $X=0.495 $Y=4.28
+ $X2=0.52 $Y2=4.28
r58 21 27 14.5122 $w=2.68e-07 $l=3.4e-07 $layer=LI1_cond $X=0.41 $Y=4.25
+ $X2=0.75 $Y2=4.25
r59 20 23 18.8848 $w=2.7e-07 $l=8.5e-08 $layer=POLY_cond $X=0.41 $Y=4.28
+ $X2=0.495 $Y2=4.28
r60 20 21 145.28 $w=1.7e-07 $l=1.7e-07 $layer=licon1_POLY $count=1 $X=0.41
+ $Y=4.28 $X2=0.41 $Y2=4.28
r61 17 21 7.68295 $w=2.68e-07 $l=1.8e-07 $layer=LI1_cond $X=0.23 $Y=4.25
+ $X2=0.41 $Y2=4.25
r62 13 29 12.2893 $w=1.8e-07 $l=1.35e-07 $layer=POLY_cond $X=0.965 $Y=4.145
+ $X2=0.965 $Y2=4.28
r63 13 15 268.21 $w=1.8e-07 $l=6.9e-07 $layer=POLY_cond $X=0.965 $Y=4.145
+ $X2=0.965 $Y2=3.455
r64 9 28 16.5046 $w=1.5e-07 $l=1.35e-07 $layer=POLY_cond $X=0.94 $Y=4.415
+ $X2=0.94 $Y2=4.28
r65 9 11 238.436 $w=1.5e-07 $l=4.65e-07 $layer=POLY_cond $X=0.94 $Y=4.415
+ $X2=0.94 $Y2=4.88
r66 5 24 16.5046 $w=1.5e-07 $l=1.35e-07 $layer=POLY_cond $X=0.52 $Y=4.415
+ $X2=0.52 $Y2=4.28
r67 5 7 238.436 $w=1.5e-07 $l=4.65e-07 $layer=POLY_cond $X=0.52 $Y=4.415
+ $X2=0.52 $Y2=4.88
r68 1 23 12.2893 $w=1.8e-07 $l=1.35e-07 $layer=POLY_cond $X=0.495 $Y=4.145
+ $X2=0.495 $Y2=4.28
r69 1 3 268.21 $w=1.8e-07 $l=6.9e-07 $layer=POLY_cond $X=0.495 $Y=4.145
+ $X2=0.495 $Y2=3.455
.ends

.subckt PM_SKY130_FD_SC_HDLL__MUXB16TO1_2%A_278_265# 1 2 9 11 12 15 17 18 21 28
+ 32
c84 15 0 8.59607e-20 $X=1.96 $Y=2.075
c85 9 0 2.06539e-19 $X=1.49 $Y=2.075
r86 26 28 13.4767 $w=2.58e-07 $l=3.756e-07 $layer=LI1_cond $X=2.43 $Y=1.42
+ $X2=2.715 $Y2=1.63
r87 25 32 66.8227 $w=2.2e-07 $l=3.05e-07 $layer=POLY_cond $X=2.265 $Y=1.34
+ $X2=1.96 $Y2=1.34
r88 24 26 7.80233 $w=2.58e-07 $l=1.65e-07 $layer=LI1_cond $X=2.265 $Y=1.42
+ $X2=2.43 $Y2=1.42
r89 24 25 145.28 $w=1.7e-07 $l=1.7e-07 $layer=licon1_POLY $count=1 $X=2.265
+ $Y=1.34 $X2=2.265 $Y2=1.34
r90 21 28 23.5727 $w=3.28e-07 $l=6.75e-07 $layer=LI1_cond $X=2.715 $Y=2.31
+ $X2=2.715 $Y2=1.635
r91 18 26 3.17874 $w=1.7e-07 $l=2.15e-07 $layer=LI1_cond $X=2.43 $Y=1.205
+ $X2=2.43 $Y2=1.42
r92 17 31 16.1792 $w=2.79e-07 $l=4.97152e-07 $layer=LI1_cond $X=2.43 $Y=0.755
+ $X2=2.8 $Y2=0.457
r93 17 18 29.3583 $w=1.68e-07 $l=4.5e-07 $layer=LI1_cond $X=2.43 $Y=0.755
+ $X2=2.43 $Y2=1.205
r94 13 32 7.56431 $w=1.8e-07 $l=1.35e-07 $layer=POLY_cond $X=1.96 $Y=1.475
+ $X2=1.96 $Y2=1.34
r95 13 15 233.226 $w=1.8e-07 $l=6e-07 $layer=POLY_cond $X=1.96 $Y=1.475 $X2=1.96
+ $Y2=2.075
r96 11 32 24.6297 $w=2.2e-07 $l=1.16189e-07 $layer=POLY_cond $X=1.87 $Y=1.4
+ $X2=1.96 $Y2=1.34
r97 11 12 148.702 $w=1.5e-07 $l=2.9e-07 $layer=POLY_cond $X=1.87 $Y=1.4 $X2=1.58
+ $Y2=1.4
r98 7 12 27.2212 $w=1.5e-07 $l=1.21861e-07 $layer=POLY_cond $X=1.49 $Y=1.475
+ $X2=1.58 $Y2=1.4
r99 7 9 233.226 $w=1.8e-07 $l=6e-07 $layer=POLY_cond $X=1.49 $Y=1.475 $X2=1.49
+ $Y2=2.075
r100 2 28 400 $w=1.7e-07 $l=1.97864e-07 $layer=licon1_PDIFF $count=1 $X=2.59
+ $Y=1.485 $X2=2.715 $Y2=1.63
r101 2 21 400 $w=1.7e-07 $l=8.85297e-07 $layer=licon1_PDIFF $count=1 $X=2.59
+ $Y=1.485 $X2=2.715 $Y2=2.31
r102 1 31 182 $w=1.7e-07 $l=3.16386e-07 $layer=licon1_NDIFF $count=1 $X=2.675
+ $Y=0.235 $X2=2.8 $Y2=0.495
.ends

.subckt PM_SKY130_FD_SC_HDLL__MUXB16TO1_2%A_278_793# 1 2 9 11 12 15 18 19 21 32
c79 15 0 8.62217e-20 $X=1.96 $Y=3.365
c80 9 0 1.91829e-19 $X=1.49 $Y=3.365
r81 25 32 66.8227 $w=2.2e-07 $l=3.05e-07 $layer=POLY_cond $X=2.265 $Y=4.1
+ $X2=1.96 $Y2=4.1
r82 24 26 7.80233 $w=2.58e-07 $l=1.65e-07 $layer=LI1_cond $X=2.265 $Y=4.02
+ $X2=2.43 $Y2=4.02
r83 24 25 145.28 $w=1.7e-07 $l=1.7e-07 $layer=licon1_POLY $count=1 $X=2.265
+ $Y=4.1 $X2=2.265 $Y2=4.1
r84 19 26 13.4767 $w=2.58e-07 $l=3.77492e-07 $layer=LI1_cond $X=2.715 $Y=3.805
+ $X2=2.43 $Y2=4.02
r85 19 21 23.5727 $w=3.28e-07 $l=6.75e-07 $layer=LI1_cond $X=2.715 $Y=3.805
+ $X2=2.715 $Y2=3.13
r86 18 31 16.1792 $w=2.79e-07 $l=4.9678e-07 $layer=LI1_cond $X=2.43 $Y=4.685
+ $X2=2.8 $Y2=4.982
r87 17 26 3.17874 $w=1.7e-07 $l=2.15e-07 $layer=LI1_cond $X=2.43 $Y=4.235
+ $X2=2.43 $Y2=4.02
r88 17 18 29.3583 $w=1.68e-07 $l=4.5e-07 $layer=LI1_cond $X=2.43 $Y=4.235
+ $X2=2.43 $Y2=4.685
r89 13 32 7.56431 $w=1.8e-07 $l=1.35e-07 $layer=POLY_cond $X=1.96 $Y=3.965
+ $X2=1.96 $Y2=4.1
r90 13 15 233.226 $w=1.8e-07 $l=6e-07 $layer=POLY_cond $X=1.96 $Y=3.965 $X2=1.96
+ $Y2=3.365
r91 11 32 24.6297 $w=2.2e-07 $l=1.16189e-07 $layer=POLY_cond $X=1.87 $Y=4.04
+ $X2=1.96 $Y2=4.1
r92 11 12 148.702 $w=1.5e-07 $l=2.9e-07 $layer=POLY_cond $X=1.87 $Y=4.04
+ $X2=1.58 $Y2=4.04
r93 7 12 27.2212 $w=1.5e-07 $l=1.21861e-07 $layer=POLY_cond $X=1.49 $Y=3.965
+ $X2=1.58 $Y2=4.04
r94 7 9 233.226 $w=1.8e-07 $l=6e-07 $layer=POLY_cond $X=1.49 $Y=3.965 $X2=1.49
+ $Y2=3.365
r95 2 19 400 $w=1.7e-07 $l=9.15369e-07 $layer=licon1_PDIFF $count=1 $X=2.59
+ $Y=2.955 $X2=2.715 $Y2=3.81
r96 2 21 400 $w=1.7e-07 $l=2.29129e-07 $layer=licon1_PDIFF $count=1 $X=2.59
+ $Y=2.955 $X2=2.715 $Y2=3.13
r97 1 31 182 $w=1.7e-07 $l=3.16386e-07 $layer=licon1_NDIFF $count=1 $X=2.675
+ $Y=4.685 $X2=2.8 $Y2=4.945
.ends

.subckt PM_SKY130_FD_SC_HDLL__MUXB16TO1_2%S[0] 1 3 4 5 6 8 9 12 13 14 15 17 18
+ 20 21 22
r66 24 26 44.8372 $w=2.58e-07 $l=2.4e-07 $layer=POLY_cond $X=2.955 $Y=0.92
+ $X2=2.955 $Y2=1.16
r67 22 26 145.28 $w=1.7e-07 $l=1.7e-07 $layer=licon1_POLY $count=1 $X=2.955
+ $Y=1.16 $X2=2.955 $Y2=1.16
r68 18 24 22.3869 $w=2.58e-07 $l=9.87421e-08 $layer=POLY_cond $X=3.01 $Y=0.845
+ $X2=2.955 $Y2=0.92
r69 18 20 112.467 $w=1.5e-07 $l=3.5e-07 $layer=POLY_cond $X=3.01 $Y=0.845
+ $X2=3.01 $Y2=0.495
r70 15 26 51.1626 $w=2.58e-07 $l=2.52488e-07 $layer=POLY_cond $X=2.95 $Y=1.41
+ $X2=2.955 $Y2=1.16
r71 15 17 153.972 $w=1.8e-07 $l=5.75e-07 $layer=POLY_cond $X=2.95 $Y=1.41
+ $X2=2.95 $Y2=1.985
r72 13 24 15.449 $w=1.5e-07 $l=1.35e-07 $layer=POLY_cond $X=2.82 $Y=0.92
+ $X2=2.955 $Y2=0.92
r73 13 14 194.851 $w=1.5e-07 $l=3.8e-07 $layer=POLY_cond $X=2.82 $Y=0.92
+ $X2=2.44 $Y2=0.92
r74 12 14 26.9307 $w=1.5e-07 $l=1.06066e-07 $layer=POLY_cond $X=2.365 $Y=0.845
+ $X2=2.44 $Y2=0.92
r75 11 12 302.532 $w=1.5e-07 $l=5.9e-07 $layer=POLY_cond $X=2.365 $Y=0.255
+ $X2=2.365 $Y2=0.845
r76 10 21 20.4101 $w=1.5e-07 $l=7.5e-08 $layer=POLY_cond $X=1.955 $Y=0.18
+ $X2=1.88 $Y2=0.18
r77 9 11 26.9307 $w=1.5e-07 $l=1.06066e-07 $layer=POLY_cond $X=2.29 $Y=0.18
+ $X2=2.365 $Y2=0.255
r78 9 10 171.777 $w=1.5e-07 $l=3.35e-07 $layer=POLY_cond $X=2.29 $Y=0.18
+ $X2=1.955 $Y2=0.18
r79 6 21 5.30422 $w=1.5e-07 $l=7.5e-08 $layer=POLY_cond $X=1.88 $Y=0.255
+ $X2=1.88 $Y2=0.18
r80 6 8 112.467 $w=1.5e-07 $l=3.5e-07 $layer=POLY_cond $X=1.88 $Y=0.255 $X2=1.88
+ $Y2=0.605
r81 4 21 20.4101 $w=1.5e-07 $l=7.5e-08 $layer=POLY_cond $X=1.805 $Y=0.18
+ $X2=1.88 $Y2=0.18
r82 4 5 138.447 $w=1.5e-07 $l=2.7e-07 $layer=POLY_cond $X=1.805 $Y=0.18
+ $X2=1.535 $Y2=0.18
r83 1 5 26.9307 $w=1.5e-07 $l=1.06066e-07 $layer=POLY_cond $X=1.46 $Y=0.255
+ $X2=1.535 $Y2=0.18
r84 1 3 112.467 $w=1.5e-07 $l=3.5e-07 $layer=POLY_cond $X=1.46 $Y=0.255 $X2=1.46
+ $Y2=0.605
.ends

.subckt PM_SKY130_FD_SC_HDLL__MUXB16TO1_2%S[8] 1 3 4 5 6 8 9 12 13 14 15 17 18
+ 20 21 22
r66 25 27 44.8372 $w=2.58e-07 $l=2.4e-07 $layer=POLY_cond $X=2.955 $Y=4.28
+ $X2=2.955 $Y2=4.52
r67 22 25 145.28 $w=1.7e-07 $l=1.7e-07 $layer=licon1_POLY $count=1 $X=2.955
+ $Y=4.28 $X2=2.955 $Y2=4.28
r68 18 27 22.3869 $w=2.58e-07 $l=9.87421e-08 $layer=POLY_cond $X=3.01 $Y=4.595
+ $X2=2.955 $Y2=4.52
r69 18 20 112.467 $w=1.5e-07 $l=3.5e-07 $layer=POLY_cond $X=3.01 $Y=4.595
+ $X2=3.01 $Y2=4.945
r70 15 25 51.1626 $w=2.58e-07 $l=2.52488e-07 $layer=POLY_cond $X=2.95 $Y=4.03
+ $X2=2.955 $Y2=4.28
r71 15 17 153.972 $w=1.8e-07 $l=5.75e-07 $layer=POLY_cond $X=2.95 $Y=4.03
+ $X2=2.95 $Y2=3.455
r72 13 27 15.449 $w=1.5e-07 $l=1.35e-07 $layer=POLY_cond $X=2.82 $Y=4.52
+ $X2=2.955 $Y2=4.52
r73 13 14 194.851 $w=1.5e-07 $l=3.8e-07 $layer=POLY_cond $X=2.82 $Y=4.52
+ $X2=2.44 $Y2=4.52
r74 11 14 26.9307 $w=1.5e-07 $l=1.06066e-07 $layer=POLY_cond $X=2.365 $Y=4.595
+ $X2=2.44 $Y2=4.52
r75 11 12 302.532 $w=1.5e-07 $l=5.9e-07 $layer=POLY_cond $X=2.365 $Y=4.595
+ $X2=2.365 $Y2=5.185
r76 10 21 20.4101 $w=1.5e-07 $l=7.5e-08 $layer=POLY_cond $X=1.955 $Y=5.26
+ $X2=1.88 $Y2=5.26
r77 9 12 26.9307 $w=1.5e-07 $l=1.06066e-07 $layer=POLY_cond $X=2.29 $Y=5.26
+ $X2=2.365 $Y2=5.185
r78 9 10 171.777 $w=1.5e-07 $l=3.35e-07 $layer=POLY_cond $X=2.29 $Y=5.26
+ $X2=1.955 $Y2=5.26
r79 6 21 5.30422 $w=1.5e-07 $l=7.5e-08 $layer=POLY_cond $X=1.88 $Y=5.185
+ $X2=1.88 $Y2=5.26
r80 6 8 112.467 $w=1.5e-07 $l=3.5e-07 $layer=POLY_cond $X=1.88 $Y=5.185 $X2=1.88
+ $Y2=4.835
r81 4 21 20.4101 $w=1.5e-07 $l=7.5e-08 $layer=POLY_cond $X=1.805 $Y=5.26
+ $X2=1.88 $Y2=5.26
r82 4 5 138.447 $w=1.5e-07 $l=2.7e-07 $layer=POLY_cond $X=1.805 $Y=5.26
+ $X2=1.535 $Y2=5.26
r83 1 5 26.9307 $w=1.5e-07 $l=1.06066e-07 $layer=POLY_cond $X=1.46 $Y=5.185
+ $X2=1.535 $Y2=5.26
r84 1 3 112.467 $w=1.5e-07 $l=3.5e-07 $layer=POLY_cond $X=1.46 $Y=5.185 $X2=1.46
+ $Y2=4.835
.ends

.subckt PM_SKY130_FD_SC_HDLL__MUXB16TO1_2%S[1] 1 3 4 6 7 10 11 12 13 15 16 18 20
+ 21 22
r63 24 26 44.8372 $w=2.58e-07 $l=2.4e-07 $layer=POLY_cond $X=3.485 $Y=0.92
+ $X2=3.485 $Y2=1.16
r64 22 26 145.28 $w=1.7e-07 $l=1.7e-07 $layer=licon1_POLY $count=1 $X=3.485
+ $Y=1.16 $X2=3.485 $Y2=1.16
r65 18 20 112.467 $w=1.5e-07 $l=3.5e-07 $layer=POLY_cond $X=4.98 $Y=0.255
+ $X2=4.98 $Y2=0.605
r66 17 21 20.4101 $w=1.5e-07 $l=7.5e-08 $layer=POLY_cond $X=4.635 $Y=0.18
+ $X2=4.56 $Y2=0.18
r67 16 18 26.9307 $w=1.5e-07 $l=1.06066e-07 $layer=POLY_cond $X=4.905 $Y=0.18
+ $X2=4.98 $Y2=0.255
r68 16 17 138.447 $w=1.5e-07 $l=2.7e-07 $layer=POLY_cond $X=4.905 $Y=0.18
+ $X2=4.635 $Y2=0.18
r69 13 21 5.30422 $w=1.5e-07 $l=7.5e-08 $layer=POLY_cond $X=4.56 $Y=0.255
+ $X2=4.56 $Y2=0.18
r70 13 15 112.467 $w=1.5e-07 $l=3.5e-07 $layer=POLY_cond $X=4.56 $Y=0.255
+ $X2=4.56 $Y2=0.605
r71 11 21 20.4101 $w=1.5e-07 $l=7.5e-08 $layer=POLY_cond $X=4.485 $Y=0.18
+ $X2=4.56 $Y2=0.18
r72 11 12 171.777 $w=1.5e-07 $l=3.35e-07 $layer=POLY_cond $X=4.485 $Y=0.18
+ $X2=4.15 $Y2=0.18
r73 9 12 26.9307 $w=1.5e-07 $l=1.06066e-07 $layer=POLY_cond $X=4.075 $Y=0.255
+ $X2=4.15 $Y2=0.18
r74 9 10 302.532 $w=1.5e-07 $l=5.9e-07 $layer=POLY_cond $X=4.075 $Y=0.255
+ $X2=4.075 $Y2=0.845
r75 8 24 15.449 $w=1.5e-07 $l=1.35e-07 $layer=POLY_cond $X=3.62 $Y=0.92
+ $X2=3.485 $Y2=0.92
r76 7 10 26.9307 $w=1.5e-07 $l=1.06066e-07 $layer=POLY_cond $X=4 $Y=0.92
+ $X2=4.075 $Y2=0.845
r77 7 8 194.851 $w=1.5e-07 $l=3.8e-07 $layer=POLY_cond $X=4 $Y=0.92 $X2=3.62
+ $Y2=0.92
r78 4 26 51.1626 $w=2.58e-07 $l=2.52488e-07 $layer=POLY_cond $X=3.49 $Y=1.41
+ $X2=3.485 $Y2=1.16
r79 4 6 153.972 $w=1.8e-07 $l=5.75e-07 $layer=POLY_cond $X=3.49 $Y=1.41 $X2=3.49
+ $Y2=1.985
r80 1 24 22.3869 $w=2.58e-07 $l=9.87421e-08 $layer=POLY_cond $X=3.43 $Y=0.845
+ $X2=3.485 $Y2=0.92
r81 1 3 112.467 $w=1.5e-07 $l=3.5e-07 $layer=POLY_cond $X=3.43 $Y=0.845 $X2=3.43
+ $Y2=0.495
.ends

.subckt PM_SKY130_FD_SC_HDLL__MUXB16TO1_2%S[9] 1 3 4 6 7 10 11 12 13 15 16 18 20
+ 21 22
r66 25 27 44.8372 $w=2.58e-07 $l=2.4e-07 $layer=POLY_cond $X=3.485 $Y=4.28
+ $X2=3.485 $Y2=4.52
r67 22 25 145.28 $w=1.7e-07 $l=1.7e-07 $layer=licon1_POLY $count=1 $X=3.485
+ $Y=4.28 $X2=3.485 $Y2=4.28
r68 18 20 112.467 $w=1.5e-07 $l=3.5e-07 $layer=POLY_cond $X=4.98 $Y=5.185
+ $X2=4.98 $Y2=4.835
r69 17 21 20.4101 $w=1.5e-07 $l=7.5e-08 $layer=POLY_cond $X=4.635 $Y=5.26
+ $X2=4.56 $Y2=5.26
r70 16 18 26.9307 $w=1.5e-07 $l=1.06066e-07 $layer=POLY_cond $X=4.905 $Y=5.26
+ $X2=4.98 $Y2=5.185
r71 16 17 138.447 $w=1.5e-07 $l=2.7e-07 $layer=POLY_cond $X=4.905 $Y=5.26
+ $X2=4.635 $Y2=5.26
r72 13 21 5.30422 $w=1.5e-07 $l=7.5e-08 $layer=POLY_cond $X=4.56 $Y=5.185
+ $X2=4.56 $Y2=5.26
r73 13 15 112.467 $w=1.5e-07 $l=3.5e-07 $layer=POLY_cond $X=4.56 $Y=5.185
+ $X2=4.56 $Y2=4.835
r74 11 21 20.4101 $w=1.5e-07 $l=7.5e-08 $layer=POLY_cond $X=4.485 $Y=5.26
+ $X2=4.56 $Y2=5.26
r75 11 12 171.777 $w=1.5e-07 $l=3.35e-07 $layer=POLY_cond $X=4.485 $Y=5.26
+ $X2=4.15 $Y2=5.26
r76 10 12 26.9307 $w=1.5e-07 $l=1.06066e-07 $layer=POLY_cond $X=4.075 $Y=5.185
+ $X2=4.15 $Y2=5.26
r77 9 10 302.532 $w=1.5e-07 $l=5.9e-07 $layer=POLY_cond $X=4.075 $Y=4.595
+ $X2=4.075 $Y2=5.185
r78 8 27 15.449 $w=1.5e-07 $l=1.35e-07 $layer=POLY_cond $X=3.62 $Y=4.52
+ $X2=3.485 $Y2=4.52
r79 7 9 26.9307 $w=1.5e-07 $l=1.06066e-07 $layer=POLY_cond $X=4 $Y=4.52
+ $X2=4.075 $Y2=4.595
r80 7 8 194.851 $w=1.5e-07 $l=3.8e-07 $layer=POLY_cond $X=4 $Y=4.52 $X2=3.62
+ $Y2=4.52
r81 4 25 51.1626 $w=2.58e-07 $l=2.52488e-07 $layer=POLY_cond $X=3.49 $Y=4.03
+ $X2=3.485 $Y2=4.28
r82 4 6 153.972 $w=1.8e-07 $l=5.75e-07 $layer=POLY_cond $X=3.49 $Y=4.03 $X2=3.49
+ $Y2=3.455
r83 1 27 22.3869 $w=2.58e-07 $l=9.87421e-08 $layer=POLY_cond $X=3.43 $Y=4.595
+ $X2=3.485 $Y2=4.52
r84 1 3 112.467 $w=1.5e-07 $l=3.5e-07 $layer=POLY_cond $X=3.43 $Y=4.595 $X2=3.43
+ $Y2=4.945
.ends

.subckt PM_SKY130_FD_SC_HDLL__MUXB16TO1_2%A_701_47# 1 2 9 11 12 15 19 22 24 28
c81 15 0 2.06539e-19 $X=4.95 $Y=2.075
c82 11 0 1.93373e-19 $X=4.86 $Y=1.4
c83 9 0 8.59607e-20 $X=4.48 $Y=2.075
r84 31 33 66.8227 $w=2.2e-07 $l=3.05e-07 $layer=POLY_cond $X=4.175 $Y=1.34
+ $X2=4.48 $Y2=1.34
r85 30 31 145.28 $w=1.7e-07 $l=1.7e-07 $layer=licon1_POLY $count=1 $X=4.175
+ $Y=1.34 $X2=4.175 $Y2=1.34
r86 28 30 7.80233 $w=2.58e-07 $l=1.65e-07 $layer=LI1_cond $X=4.01 $Y=1.42
+ $X2=4.175 $Y2=1.42
r87 27 28 13.4767 $w=2.58e-07 $l=3.756e-07 $layer=LI1_cond $X=3.725 $Y=1.63
+ $X2=4.01 $Y2=1.42
r88 22 28 3.17874 $w=1.7e-07 $l=2.15e-07 $layer=LI1_cond $X=4.01 $Y=1.205
+ $X2=4.01 $Y2=1.42
r89 21 24 16.1792 $w=2.79e-07 $l=4.97152e-07 $layer=LI1_cond $X=4.01 $Y=0.755
+ $X2=3.64 $Y2=0.457
r90 21 22 29.3583 $w=1.68e-07 $l=4.5e-07 $layer=LI1_cond $X=4.01 $Y=0.755
+ $X2=4.01 $Y2=1.205
r91 19 27 23.5727 $w=3.28e-07 $l=6.75e-07 $layer=LI1_cond $X=3.725 $Y=2.31
+ $X2=3.725 $Y2=1.635
r92 13 15 233.226 $w=1.8e-07 $l=6e-07 $layer=POLY_cond $X=4.95 $Y=1.475 $X2=4.95
+ $Y2=2.075
r93 12 33 24.6297 $w=2.2e-07 $l=1.16189e-07 $layer=POLY_cond $X=4.57 $Y=1.4
+ $X2=4.48 $Y2=1.34
r94 11 13 27.2212 $w=1.5e-07 $l=1.21861e-07 $layer=POLY_cond $X=4.86 $Y=1.4
+ $X2=4.95 $Y2=1.475
r95 11 12 148.702 $w=1.5e-07 $l=2.9e-07 $layer=POLY_cond $X=4.86 $Y=1.4 $X2=4.57
+ $Y2=1.4
r96 7 33 7.56431 $w=1.8e-07 $l=1.35e-07 $layer=POLY_cond $X=4.48 $Y=1.475
+ $X2=4.48 $Y2=1.34
r97 7 9 233.226 $w=1.8e-07 $l=6e-07 $layer=POLY_cond $X=4.48 $Y=1.475 $X2=4.48
+ $Y2=2.075
r98 2 27 400 $w=1.7e-07 $l=2.05061e-07 $layer=licon1_PDIFF $count=1 $X=3.58
+ $Y=1.485 $X2=3.725 $Y2=1.63
r99 2 19 400 $w=1.7e-07 $l=8.94567e-07 $layer=licon1_PDIFF $count=1 $X=3.58
+ $Y=1.485 $X2=3.725 $Y2=2.31
r100 1 24 182 $w=1.7e-07 $l=3.20468e-07 $layer=licon1_NDIFF $count=1 $X=3.505
+ $Y=0.235 $X2=3.64 $Y2=0.495
.ends

.subckt PM_SKY130_FD_SC_HDLL__MUXB16TO1_2%A_701_937# 1 2 9 11 12 15 19 22 24 28
c81 15 0 1.91829e-19 $X=4.95 $Y=3.365
c82 11 0 1.93373e-19 $X=4.86 $Y=4.04
c83 9 0 8.62217e-20 $X=4.48 $Y=3.365
r84 31 33 66.8227 $w=2.2e-07 $l=3.05e-07 $layer=POLY_cond $X=4.175 $Y=4.1
+ $X2=4.48 $Y2=4.1
r85 30 31 145.28 $w=1.7e-07 $l=1.7e-07 $layer=licon1_POLY $count=1 $X=4.175
+ $Y=4.1 $X2=4.175 $Y2=4.1
r86 28 30 7.80233 $w=2.58e-07 $l=1.65e-07 $layer=LI1_cond $X=4.01 $Y=4.02
+ $X2=4.175 $Y2=4.02
r87 22 24 16.1792 $w=2.79e-07 $l=4.9678e-07 $layer=LI1_cond $X=4.01 $Y=4.685
+ $X2=3.64 $Y2=4.982
r88 21 28 3.17874 $w=1.7e-07 $l=2.15e-07 $layer=LI1_cond $X=4.01 $Y=4.235
+ $X2=4.01 $Y2=4.02
r89 21 22 29.3583 $w=1.68e-07 $l=4.5e-07 $layer=LI1_cond $X=4.01 $Y=4.235
+ $X2=4.01 $Y2=4.685
r90 17 28 13.4767 $w=2.58e-07 $l=3.77492e-07 $layer=LI1_cond $X=3.725 $Y=3.805
+ $X2=4.01 $Y2=4.02
r91 17 19 23.5727 $w=3.28e-07 $l=6.75e-07 $layer=LI1_cond $X=3.725 $Y=3.805
+ $X2=3.725 $Y2=3.13
r92 13 15 233.226 $w=1.8e-07 $l=6e-07 $layer=POLY_cond $X=4.95 $Y=3.965 $X2=4.95
+ $Y2=3.365
r93 12 33 24.6297 $w=2.2e-07 $l=1.16189e-07 $layer=POLY_cond $X=4.57 $Y=4.04
+ $X2=4.48 $Y2=4.1
r94 11 13 27.2212 $w=1.5e-07 $l=1.21861e-07 $layer=POLY_cond $X=4.86 $Y=4.04
+ $X2=4.95 $Y2=3.965
r95 11 12 148.702 $w=1.5e-07 $l=2.9e-07 $layer=POLY_cond $X=4.86 $Y=4.04
+ $X2=4.57 $Y2=4.04
r96 7 33 7.56431 $w=1.8e-07 $l=1.35e-07 $layer=POLY_cond $X=4.48 $Y=3.965
+ $X2=4.48 $Y2=4.1
r97 7 9 233.226 $w=1.8e-07 $l=6e-07 $layer=POLY_cond $X=4.48 $Y=3.965 $X2=4.48
+ $Y2=3.365
r98 2 17 400 $w=1.7e-07 $l=9.24662e-07 $layer=licon1_PDIFF $count=1 $X=3.58
+ $Y=2.955 $X2=3.725 $Y2=3.81
r99 2 19 400 $w=1.7e-07 $l=2.36643e-07 $layer=licon1_PDIFF $count=1 $X=3.58
+ $Y=2.955 $X2=3.725 $Y2=3.13
r100 1 24 182 $w=1.7e-07 $l=3.20468e-07 $layer=licon1_NDIFF $count=1 $X=3.505
+ $Y=4.685 $X2=3.64 $Y2=4.945
.ends

.subckt PM_SKY130_FD_SC_HDLL__MUXB16TO1_2%D[1] 3 7 11 15 17 28
c57 17 0 1.17966e-19 $X=6.21 $Y=1.19
c58 15 0 1.17966e-19 $X=5.945 $Y=1.985
c59 3 0 5.84221e-22 $X=5.475 $Y=1.985
r60 28 29 145.28 $w=1.7e-07 $l=1.7e-07 $layer=licon1_POLY $count=1 $X=6.03
+ $Y=1.16 $X2=6.03 $Y2=1.16
r61 26 28 18.8848 $w=2.7e-07 $l=8.5e-08 $layer=POLY_cond $X=5.945 $Y=1.16
+ $X2=6.03 $Y2=1.16
r62 25 26 5.55434 $w=2.7e-07 $l=2.5e-08 $layer=POLY_cond $X=5.92 $Y=1.16
+ $X2=5.945 $Y2=1.16
r63 24 29 14.5122 $w=2.68e-07 $l=3.4e-07 $layer=LI1_cond $X=5.69 $Y=1.19
+ $X2=6.03 $Y2=1.19
r64 23 25 51.1 $w=2.7e-07 $l=2.3e-07 $layer=POLY_cond $X=5.69 $Y=1.16 $X2=5.92
+ $Y2=1.16
r65 23 24 145.28 $w=1.7e-07 $l=1.7e-07 $layer=licon1_POLY $count=1 $X=5.69
+ $Y=1.16 $X2=5.69 $Y2=1.16
r66 21 23 42.213 $w=2.7e-07 $l=1.9e-07 $layer=POLY_cond $X=5.5 $Y=1.16 $X2=5.69
+ $Y2=1.16
r67 19 21 5.55434 $w=2.7e-07 $l=2.5e-08 $layer=POLY_cond $X=5.475 $Y=1.16
+ $X2=5.5 $Y2=1.16
r68 17 29 7.68295 $w=2.68e-07 $l=1.8e-07 $layer=LI1_cond $X=6.21 $Y=1.19
+ $X2=6.03 $Y2=1.19
r69 13 26 12.2893 $w=1.8e-07 $l=1.35e-07 $layer=POLY_cond $X=5.945 $Y=1.295
+ $X2=5.945 $Y2=1.16
r70 13 15 268.21 $w=1.8e-07 $l=6.9e-07 $layer=POLY_cond $X=5.945 $Y=1.295
+ $X2=5.945 $Y2=1.985
r71 9 25 16.5046 $w=1.5e-07 $l=1.35e-07 $layer=POLY_cond $X=5.92 $Y=1.025
+ $X2=5.92 $Y2=1.16
r72 9 11 238.436 $w=1.5e-07 $l=4.65e-07 $layer=POLY_cond $X=5.92 $Y=1.025
+ $X2=5.92 $Y2=0.56
r73 5 21 16.5046 $w=1.5e-07 $l=1.35e-07 $layer=POLY_cond $X=5.5 $Y=1.025 $X2=5.5
+ $Y2=1.16
r74 5 7 238.436 $w=1.5e-07 $l=4.65e-07 $layer=POLY_cond $X=5.5 $Y=1.025 $X2=5.5
+ $Y2=0.56
r75 1 19 12.2893 $w=1.8e-07 $l=1.35e-07 $layer=POLY_cond $X=5.475 $Y=1.295
+ $X2=5.475 $Y2=1.16
r76 1 3 268.21 $w=1.8e-07 $l=6.9e-07 $layer=POLY_cond $X=5.475 $Y=1.295
+ $X2=5.475 $Y2=1.985
.ends

.subckt PM_SKY130_FD_SC_HDLL__MUXB16TO1_2%D[9] 3 7 11 15 17 28
c57 17 0 1.17966e-19 $X=6.21 $Y=4.25
c58 15 0 1.17966e-19 $X=5.945 $Y=3.455
c59 3 0 5.84221e-22 $X=5.475 $Y=3.455
r60 28 29 145.28 $w=1.7e-07 $l=1.7e-07 $layer=licon1_POLY $count=1 $X=6.03
+ $Y=4.28 $X2=6.03 $Y2=4.28
r61 26 28 18.8848 $w=2.7e-07 $l=8.5e-08 $layer=POLY_cond $X=5.945 $Y=4.28
+ $X2=6.03 $Y2=4.28
r62 25 26 5.55434 $w=2.7e-07 $l=2.5e-08 $layer=POLY_cond $X=5.92 $Y=4.28
+ $X2=5.945 $Y2=4.28
r63 24 29 14.5122 $w=2.68e-07 $l=3.4e-07 $layer=LI1_cond $X=5.69 $Y=4.25
+ $X2=6.03 $Y2=4.25
r64 23 25 51.1 $w=2.7e-07 $l=2.3e-07 $layer=POLY_cond $X=5.69 $Y=4.28 $X2=5.92
+ $Y2=4.28
r65 23 24 145.28 $w=1.7e-07 $l=1.7e-07 $layer=licon1_POLY $count=1 $X=5.69
+ $Y=4.28 $X2=5.69 $Y2=4.28
r66 21 23 42.213 $w=2.7e-07 $l=1.9e-07 $layer=POLY_cond $X=5.5 $Y=4.28 $X2=5.69
+ $Y2=4.28
r67 19 21 5.55434 $w=2.7e-07 $l=2.5e-08 $layer=POLY_cond $X=5.475 $Y=4.28
+ $X2=5.5 $Y2=4.28
r68 17 29 7.68295 $w=2.68e-07 $l=1.8e-07 $layer=LI1_cond $X=6.21 $Y=4.25
+ $X2=6.03 $Y2=4.25
r69 13 26 12.2893 $w=1.8e-07 $l=1.35e-07 $layer=POLY_cond $X=5.945 $Y=4.145
+ $X2=5.945 $Y2=4.28
r70 13 15 268.21 $w=1.8e-07 $l=6.9e-07 $layer=POLY_cond $X=5.945 $Y=4.145
+ $X2=5.945 $Y2=3.455
r71 9 25 16.5046 $w=1.5e-07 $l=1.35e-07 $layer=POLY_cond $X=5.92 $Y=4.415
+ $X2=5.92 $Y2=4.28
r72 9 11 238.436 $w=1.5e-07 $l=4.65e-07 $layer=POLY_cond $X=5.92 $Y=4.415
+ $X2=5.92 $Y2=4.88
r73 5 21 16.5046 $w=1.5e-07 $l=1.35e-07 $layer=POLY_cond $X=5.5 $Y=4.415 $X2=5.5
+ $Y2=4.28
r74 5 7 238.436 $w=1.5e-07 $l=4.65e-07 $layer=POLY_cond $X=5.5 $Y=4.415 $X2=5.5
+ $Y2=4.88
r75 1 19 12.2893 $w=1.8e-07 $l=1.35e-07 $layer=POLY_cond $X=5.475 $Y=4.145
+ $X2=5.475 $Y2=4.28
r76 1 3 268.21 $w=1.8e-07 $l=6.9e-07 $layer=POLY_cond $X=5.475 $Y=4.145
+ $X2=5.475 $Y2=3.455
.ends

.subckt PM_SKY130_FD_SC_HDLL__MUXB16TO1_2%D[2] 3 7 11 15 17 27 29
c58 27 0 1.17966e-19 $X=7.19 $Y=1.16
c59 15 0 5.84221e-22 $X=7.405 $Y=1.985
c60 3 0 1.17966e-19 $X=6.935 $Y=1.985
r61 28 29 5.55434 $w=2.7e-07 $l=2.5e-08 $layer=POLY_cond $X=7.38 $Y=1.16
+ $X2=7.405 $Y2=1.16
r62 26 28 42.213 $w=2.7e-07 $l=1.9e-07 $layer=POLY_cond $X=7.19 $Y=1.16 $X2=7.38
+ $Y2=1.16
r63 26 27 145.28 $w=1.7e-07 $l=1.7e-07 $layer=licon1_POLY $count=1 $X=7.19
+ $Y=1.16 $X2=7.19 $Y2=1.16
r64 24 26 51.1 $w=2.7e-07 $l=2.3e-07 $layer=POLY_cond $X=6.96 $Y=1.16 $X2=7.19
+ $Y2=1.16
r65 23 24 5.55434 $w=2.7e-07 $l=2.5e-08 $layer=POLY_cond $X=6.935 $Y=1.16
+ $X2=6.96 $Y2=1.16
r66 21 27 14.5122 $w=2.68e-07 $l=3.4e-07 $layer=LI1_cond $X=6.85 $Y=1.19
+ $X2=7.19 $Y2=1.19
r67 20 23 18.8848 $w=2.7e-07 $l=8.5e-08 $layer=POLY_cond $X=6.85 $Y=1.16
+ $X2=6.935 $Y2=1.16
r68 20 21 145.28 $w=1.7e-07 $l=1.7e-07 $layer=licon1_POLY $count=1 $X=6.85
+ $Y=1.16 $X2=6.85 $Y2=1.16
r69 17 21 7.68295 $w=2.68e-07 $l=1.8e-07 $layer=LI1_cond $X=6.67 $Y=1.19
+ $X2=6.85 $Y2=1.19
r70 13 29 12.2893 $w=1.8e-07 $l=1.35e-07 $layer=POLY_cond $X=7.405 $Y=1.295
+ $X2=7.405 $Y2=1.16
r71 13 15 268.21 $w=1.8e-07 $l=6.9e-07 $layer=POLY_cond $X=7.405 $Y=1.295
+ $X2=7.405 $Y2=1.985
r72 9 28 16.5046 $w=1.5e-07 $l=1.35e-07 $layer=POLY_cond $X=7.38 $Y=1.025
+ $X2=7.38 $Y2=1.16
r73 9 11 238.436 $w=1.5e-07 $l=4.65e-07 $layer=POLY_cond $X=7.38 $Y=1.025
+ $X2=7.38 $Y2=0.56
r74 5 24 16.5046 $w=1.5e-07 $l=1.35e-07 $layer=POLY_cond $X=6.96 $Y=1.025
+ $X2=6.96 $Y2=1.16
r75 5 7 238.436 $w=1.5e-07 $l=4.65e-07 $layer=POLY_cond $X=6.96 $Y=1.025
+ $X2=6.96 $Y2=0.56
r76 1 23 12.2893 $w=1.8e-07 $l=1.35e-07 $layer=POLY_cond $X=6.935 $Y=1.295
+ $X2=6.935 $Y2=1.16
r77 1 3 268.21 $w=1.8e-07 $l=6.9e-07 $layer=POLY_cond $X=6.935 $Y=1.295
+ $X2=6.935 $Y2=1.985
.ends

.subckt PM_SKY130_FD_SC_HDLL__MUXB16TO1_2%D[10] 3 7 11 15 17 27 29
c59 27 0 1.17966e-19 $X=7.19 $Y=4.28
c60 15 0 5.84221e-22 $X=7.405 $Y=3.455
c61 3 0 1.17966e-19 $X=6.935 $Y=3.455
r62 28 29 5.55434 $w=2.7e-07 $l=2.5e-08 $layer=POLY_cond $X=7.38 $Y=4.28
+ $X2=7.405 $Y2=4.28
r63 26 28 42.213 $w=2.7e-07 $l=1.9e-07 $layer=POLY_cond $X=7.19 $Y=4.28 $X2=7.38
+ $Y2=4.28
r64 26 27 145.28 $w=1.7e-07 $l=1.7e-07 $layer=licon1_POLY $count=1 $X=7.19
+ $Y=4.28 $X2=7.19 $Y2=4.28
r65 24 26 51.1 $w=2.7e-07 $l=2.3e-07 $layer=POLY_cond $X=6.96 $Y=4.28 $X2=7.19
+ $Y2=4.28
r66 23 24 5.55434 $w=2.7e-07 $l=2.5e-08 $layer=POLY_cond $X=6.935 $Y=4.28
+ $X2=6.96 $Y2=4.28
r67 21 27 14.5122 $w=2.68e-07 $l=3.4e-07 $layer=LI1_cond $X=6.85 $Y=4.25
+ $X2=7.19 $Y2=4.25
r68 20 23 18.8848 $w=2.7e-07 $l=8.5e-08 $layer=POLY_cond $X=6.85 $Y=4.28
+ $X2=6.935 $Y2=4.28
r69 20 21 145.28 $w=1.7e-07 $l=1.7e-07 $layer=licon1_POLY $count=1 $X=6.85
+ $Y=4.28 $X2=6.85 $Y2=4.28
r70 17 21 7.68295 $w=2.68e-07 $l=1.8e-07 $layer=LI1_cond $X=6.67 $Y=4.25
+ $X2=6.85 $Y2=4.25
r71 13 29 12.2893 $w=1.8e-07 $l=1.35e-07 $layer=POLY_cond $X=7.405 $Y=4.145
+ $X2=7.405 $Y2=4.28
r72 13 15 268.21 $w=1.8e-07 $l=6.9e-07 $layer=POLY_cond $X=7.405 $Y=4.145
+ $X2=7.405 $Y2=3.455
r73 9 28 16.5046 $w=1.5e-07 $l=1.35e-07 $layer=POLY_cond $X=7.38 $Y=4.415
+ $X2=7.38 $Y2=4.28
r74 9 11 238.436 $w=1.5e-07 $l=4.65e-07 $layer=POLY_cond $X=7.38 $Y=4.415
+ $X2=7.38 $Y2=4.88
r75 5 24 16.5046 $w=1.5e-07 $l=1.35e-07 $layer=POLY_cond $X=6.96 $Y=4.415
+ $X2=6.96 $Y2=4.28
r76 5 7 238.436 $w=1.5e-07 $l=4.65e-07 $layer=POLY_cond $X=6.96 $Y=4.415
+ $X2=6.96 $Y2=4.88
r77 1 23 12.2893 $w=1.8e-07 $l=1.35e-07 $layer=POLY_cond $X=6.935 $Y=4.145
+ $X2=6.935 $Y2=4.28
r78 1 3 268.21 $w=1.8e-07 $l=6.9e-07 $layer=POLY_cond $X=6.935 $Y=4.145
+ $X2=6.935 $Y2=3.455
.ends

.subckt PM_SKY130_FD_SC_HDLL__MUXB16TO1_2%A_1566_265# 1 2 9 11 12 15 17 18 21 28
+ 32
c85 15 0 8.59607e-20 $X=8.4 $Y=2.075
c86 12 0 1.93373e-19 $X=8.02 $Y=1.4
c87 9 0 2.06539e-19 $X=7.93 $Y=2.075
r88 26 28 13.4767 $w=2.58e-07 $l=3.756e-07 $layer=LI1_cond $X=8.87 $Y=1.42
+ $X2=9.155 $Y2=1.63
r89 25 32 66.8227 $w=2.2e-07 $l=3.05e-07 $layer=POLY_cond $X=8.705 $Y=1.34
+ $X2=8.4 $Y2=1.34
r90 24 26 7.80233 $w=2.58e-07 $l=1.65e-07 $layer=LI1_cond $X=8.705 $Y=1.42
+ $X2=8.87 $Y2=1.42
r91 24 25 145.28 $w=1.7e-07 $l=1.7e-07 $layer=licon1_POLY $count=1 $X=8.705
+ $Y=1.34 $X2=8.705 $Y2=1.34
r92 21 28 23.5727 $w=3.28e-07 $l=6.75e-07 $layer=LI1_cond $X=9.155 $Y=2.31
+ $X2=9.155 $Y2=1.635
r93 18 26 3.17874 $w=1.7e-07 $l=2.15e-07 $layer=LI1_cond $X=8.87 $Y=1.205
+ $X2=8.87 $Y2=1.42
r94 17 31 16.1792 $w=2.79e-07 $l=4.97152e-07 $layer=LI1_cond $X=8.87 $Y=0.755
+ $X2=9.24 $Y2=0.457
r95 17 18 29.3583 $w=1.68e-07 $l=4.5e-07 $layer=LI1_cond $X=8.87 $Y=0.755
+ $X2=8.87 $Y2=1.205
r96 13 32 7.56431 $w=1.8e-07 $l=1.35e-07 $layer=POLY_cond $X=8.4 $Y=1.475
+ $X2=8.4 $Y2=1.34
r97 13 15 233.226 $w=1.8e-07 $l=6e-07 $layer=POLY_cond $X=8.4 $Y=1.475 $X2=8.4
+ $Y2=2.075
r98 11 32 24.6297 $w=2.2e-07 $l=1.16189e-07 $layer=POLY_cond $X=8.31 $Y=1.4
+ $X2=8.4 $Y2=1.34
r99 11 12 148.702 $w=1.5e-07 $l=2.9e-07 $layer=POLY_cond $X=8.31 $Y=1.4 $X2=8.02
+ $Y2=1.4
r100 7 12 27.2212 $w=1.5e-07 $l=1.21861e-07 $layer=POLY_cond $X=7.93 $Y=1.475
+ $X2=8.02 $Y2=1.4
r101 7 9 233.226 $w=1.8e-07 $l=6e-07 $layer=POLY_cond $X=7.93 $Y=1.475 $X2=7.93
+ $Y2=2.075
r102 2 28 400 $w=1.7e-07 $l=1.97864e-07 $layer=licon1_PDIFF $count=1 $X=9.03
+ $Y=1.485 $X2=9.155 $Y2=1.63
r103 2 21 400 $w=1.7e-07 $l=8.85297e-07 $layer=licon1_PDIFF $count=1 $X=9.03
+ $Y=1.485 $X2=9.155 $Y2=2.31
r104 1 31 182 $w=1.7e-07 $l=3.16386e-07 $layer=licon1_NDIFF $count=1 $X=9.115
+ $Y=0.235 $X2=9.24 $Y2=0.495
.ends

.subckt PM_SKY130_FD_SC_HDLL__MUXB16TO1_2%A_1566_793# 1 2 9 11 12 15 18 19 21 32
c80 15 0 8.62217e-20 $X=8.4 $Y=3.365
c81 12 0 1.93373e-19 $X=8.02 $Y=4.04
c82 9 0 1.91829e-19 $X=7.93 $Y=3.365
r83 25 32 66.8227 $w=2.2e-07 $l=3.05e-07 $layer=POLY_cond $X=8.705 $Y=4.1
+ $X2=8.4 $Y2=4.1
r84 24 26 7.80233 $w=2.58e-07 $l=1.65e-07 $layer=LI1_cond $X=8.705 $Y=4.02
+ $X2=8.87 $Y2=4.02
r85 24 25 145.28 $w=1.7e-07 $l=1.7e-07 $layer=licon1_POLY $count=1 $X=8.705
+ $Y=4.1 $X2=8.705 $Y2=4.1
r86 19 26 13.4767 $w=2.58e-07 $l=3.77492e-07 $layer=LI1_cond $X=9.155 $Y=3.805
+ $X2=8.87 $Y2=4.02
r87 19 21 23.5727 $w=3.28e-07 $l=6.75e-07 $layer=LI1_cond $X=9.155 $Y=3.805
+ $X2=9.155 $Y2=3.13
r88 18 31 16.1792 $w=2.79e-07 $l=4.9678e-07 $layer=LI1_cond $X=8.87 $Y=4.685
+ $X2=9.24 $Y2=4.982
r89 17 26 3.17874 $w=1.7e-07 $l=2.15e-07 $layer=LI1_cond $X=8.87 $Y=4.235
+ $X2=8.87 $Y2=4.02
r90 17 18 29.3583 $w=1.68e-07 $l=4.5e-07 $layer=LI1_cond $X=8.87 $Y=4.235
+ $X2=8.87 $Y2=4.685
r91 13 32 7.56431 $w=1.8e-07 $l=1.35e-07 $layer=POLY_cond $X=8.4 $Y=3.965
+ $X2=8.4 $Y2=4.1
r92 13 15 233.226 $w=1.8e-07 $l=6e-07 $layer=POLY_cond $X=8.4 $Y=3.965 $X2=8.4
+ $Y2=3.365
r93 11 32 24.6297 $w=2.2e-07 $l=1.16189e-07 $layer=POLY_cond $X=8.31 $Y=4.04
+ $X2=8.4 $Y2=4.1
r94 11 12 148.702 $w=1.5e-07 $l=2.9e-07 $layer=POLY_cond $X=8.31 $Y=4.04
+ $X2=8.02 $Y2=4.04
r95 7 12 27.2212 $w=1.5e-07 $l=1.21861e-07 $layer=POLY_cond $X=7.93 $Y=3.965
+ $X2=8.02 $Y2=4.04
r96 7 9 233.226 $w=1.8e-07 $l=6e-07 $layer=POLY_cond $X=7.93 $Y=3.965 $X2=7.93
+ $Y2=3.365
r97 2 19 400 $w=1.7e-07 $l=9.15369e-07 $layer=licon1_PDIFF $count=1 $X=9.03
+ $Y=2.955 $X2=9.155 $Y2=3.81
r98 2 21 400 $w=1.7e-07 $l=2.29129e-07 $layer=licon1_PDIFF $count=1 $X=9.03
+ $Y=2.955 $X2=9.155 $Y2=3.13
r99 1 31 182 $w=1.7e-07 $l=3.16386e-07 $layer=licon1_NDIFF $count=1 $X=9.115
+ $Y=4.685 $X2=9.24 $Y2=4.945
.ends

.subckt PM_SKY130_FD_SC_HDLL__MUXB16TO1_2%S[2] 1 3 4 5 6 8 9 12 13 14 15 17 18
+ 20 21 22
r66 24 26 44.8372 $w=2.58e-07 $l=2.4e-07 $layer=POLY_cond $X=9.395 $Y=0.92
+ $X2=9.395 $Y2=1.16
r67 22 26 145.28 $w=1.7e-07 $l=1.7e-07 $layer=licon1_POLY $count=1 $X=9.395
+ $Y=1.16 $X2=9.395 $Y2=1.16
r68 18 24 22.3869 $w=2.58e-07 $l=9.87421e-08 $layer=POLY_cond $X=9.45 $Y=0.845
+ $X2=9.395 $Y2=0.92