* File: sky130_fd_sc_hdll__muxb16to1_4.pex.spice
* Created: Thu Aug 27 19:11:38 2020
* Program "Calibre xRC"
* Version "v2018.4_34.26"
* Nominal Temperature: 27C
* Circuit Temperature: 27C
* 
.subckt PM_SKY130_FD_SC_HDLL__MUXB16TO1_4%VNB 9 10 11
r1126 9 11 5.16612 $w=2.88e-07 $l=1.3e-07 $layer=LI1_cond $X=25.99 $Y=4.8
+ $X2=25.99 $Y2=4.93
r1127 9 10 5.16612 $w=2.88e-07 $l=1.3e-07 $layer=LI1_cond $X=25.99 $Y=0.64
+ $X2=25.99 $Y2=0.51
.ends

.subckt PM_SKY130_FD_SC_HDLL__MUXB16TO1_4%VPB 7 8 9 10 11 26
c742 7 0 0.00193304f $X=51.665 $Y=2.635
r743 10 11 13.5114 $w=2.88e-07 $l=3.4e-07 $layer=LI1_cond $X=25.99 $Y=3.23
+ $X2=25.99 $Y2=3.57
r744 8 9 13.5114 $w=2.88e-07 $l=3.4e-07 $layer=LI1_cond $X=25.99 $Y=1.87
+ $X2=25.99 $Y2=2.21
r745 8 26 5.56352 $w=2.88e-07 $l=1.4e-07 $layer=LI1_cond $X=25.99 $Y=1.87
+ $X2=25.99 $Y2=1.73
r746 7 10 91 $w=1.7e-07 $l=2.89396e-07 $layer=licon1_NTAP_notbjt $count=2
+ $X=25.905 $Y=3.04 $X2=25.99 $Y2=3.29
r747 7 26 91 $w=1.7e-07 $l=2.43824e-07 $layer=licon1_NTAP_notbjt $count=2
+ $X=25.905 $Y=1.525 $X2=25.99 $Y2=1.73
.ends

.subckt PM_SKY130_FD_SC_HDLL__MUXB16TO1_4%D[0] 3 7 11 15 19 23 27 31 33 35 36 51
+ 53
r90 52 53 5.55434 $w=2.7e-07 $l=2.5e-08 $layer=POLY_cond $X=1.88 $Y=1.16
+ $X2=1.905 $Y2=1.16
r91 50 52 57.7652 $w=2.7e-07 $l=2.6e-07 $layer=POLY_cond $X=1.62 $Y=1.16
+ $X2=1.88 $Y2=1.16
r92 50 51 145.28 $w=1.7e-07 $l=1.7e-07 $layer=licon1_POLY $count=1 $X=1.62
+ $Y=1.16 $X2=1.62 $Y2=1.16
r93 48 50 35.5478 $w=2.7e-07 $l=1.6e-07 $layer=POLY_cond $X=1.46 $Y=1.16
+ $X2=1.62 $Y2=1.16
r94 47 48 5.55434 $w=2.7e-07 $l=2.5e-08 $layer=POLY_cond $X=1.435 $Y=1.16
+ $X2=1.46 $Y2=1.16
r95 44 46 5.55434 $w=2.7e-07 $l=2.5e-08 $layer=POLY_cond $X=0.94 $Y=1.16
+ $X2=0.965 $Y2=1.16
r96 44 45 72.64 $w=1.7e-07 $l=3.4e-07 $layer=licon1_POLY $count=2 $X=0.94
+ $Y=1.16 $X2=0.94 $Y2=1.16
r97 42 44 93.313 $w=2.7e-07 $l=4.2e-07 $layer=POLY_cond $X=0.52 $Y=1.16 $X2=0.94
+ $Y2=1.16
r98 40 42 5.55434 $w=2.7e-07 $l=2.5e-08 $layer=POLY_cond $X=0.495 $Y=1.16
+ $X2=0.52 $Y2=1.16
r99 39 51 14.5122 $w=2.68e-07 $l=3.4e-07 $layer=LI1_cond $X=1.28 $Y=1.19
+ $X2=1.62 $Y2=1.19
r100 39 45 14.5122 $w=2.68e-07 $l=3.4e-07 $layer=LI1_cond $X=1.28 $Y=1.19
+ $X2=0.94 $Y2=1.19
r101 38 39 145.28 $w=1.7e-07 $l=1.7e-07 $layer=licon1_POLY $count=1 $X=1.28
+ $Y=1.16 $X2=1.28 $Y2=1.16
r102 36 46 19.9956 $w=2.7e-07 $l=9e-08 $layer=POLY_cond $X=1.055 $Y=1.16
+ $X2=0.965 $Y2=1.16
r103 36 38 49.9891 $w=2.7e-07 $l=2.25e-07 $layer=POLY_cond $X=1.055 $Y=1.16
+ $X2=1.28 $Y2=1.16
r104 35 47 19.9956 $w=2.7e-07 $l=9e-08 $layer=POLY_cond $X=1.345 $Y=1.16
+ $X2=1.435 $Y2=1.16
r105 35 38 14.4413 $w=2.7e-07 $l=6.5e-08 $layer=POLY_cond $X=1.345 $Y=1.16
+ $X2=1.28 $Y2=1.16
r106 33 45 10.6708 $w=2.68e-07 $l=2.5e-07 $layer=LI1_cond $X=0.69 $Y=1.19
+ $X2=0.94 $Y2=1.19
r107 29 53 12.2893 $w=1.8e-07 $l=1.35e-07 $layer=POLY_cond $X=1.905 $Y=1.295
+ $X2=1.905 $Y2=1.16
r108 29 31 268.21 $w=1.8e-07 $l=6.9e-07 $layer=POLY_cond $X=1.905 $Y=1.295
+ $X2=1.905 $Y2=1.985
r109 25 52 16.5046 $w=1.5e-07 $l=1.35e-07 $layer=POLY_cond $X=1.88 $Y=1.025
+ $X2=1.88 $Y2=1.16
r110 25 27 238.436 $w=1.5e-07 $l=4.65e-07 $layer=POLY_cond $X=1.88 $Y=1.025
+ $X2=1.88 $Y2=0.56
r111 21 48 16.5046 $w=1.5e-07 $l=1.35e-07 $layer=POLY_cond $X=1.46 $Y=1.025
+ $X2=1.46 $Y2=1.16
r112 21 23 238.436 $w=1.5e-07 $l=4.65e-07 $layer=POLY_cond $X=1.46 $Y=1.025
+ $X2=1.46 $Y2=0.56
r113 17 47 12.2893 $w=1.8e-07 $l=1.35e-07 $layer=POLY_cond $X=1.435 $Y=1.295
+ $X2=1.435 $Y2=1.16
r114 17 19 268.21 $w=1.8e-07 $l=6.9e-07 $layer=POLY_cond $X=1.435 $Y=1.295
+ $X2=1.435 $Y2=1.985
r115 13 46 12.2893 $w=1.8e-07 $l=1.35e-07 $layer=POLY_cond $X=0.965 $Y=1.295
+ $X2=0.965 $Y2=1.16
r116 13 15 268.21 $w=1.8e-07 $l=6.9e-07 $layer=POLY_cond $X=0.965 $Y=1.295
+ $X2=0.965 $Y2=1.985
r117 9 44 16.5046 $w=1.5e-07 $l=1.35e-07 $layer=POLY_cond $X=0.94 $Y=1.025
+ $X2=0.94 $Y2=1.16
r118 9 11 238.436 $w=1.5e-07 $l=4.65e-07 $layer=POLY_cond $X=0.94 $Y=1.025
+ $X2=0.94 $Y2=0.56
r119 5 42 16.5046 $w=1.5e-07 $l=1.35e-07 $layer=POLY_cond $X=0.52 $Y=1.025
+ $X2=0.52 $Y2=1.16
r120 5 7 238.436 $w=1.5e-07 $l=4.65e-07 $layer=POLY_cond $X=0.52 $Y=1.025
+ $X2=0.52 $Y2=0.56
r121 1 40 12.2893 $w=1.8e-07 $l=1.35e-07 $layer=POLY_cond $X=0.495 $Y=1.295
+ $X2=0.495 $Y2=1.16
r122 1 3 268.21 $w=1.8e-07 $l=6.9e-07 $layer=POLY_cond $X=0.495 $Y=1.295
+ $X2=0.495 $Y2=1.985
.ends

.subckt PM_SKY130_FD_SC_HDLL__MUXB16TO1_4%D[8] 3 7 11 15 19 23 27 31 33 35 36 51
+ 53
r86 52 53 5.55434 $w=2.7e-07 $l=2.5e-08 $layer=POLY_cond $X=1.88 $Y=4.28
+ $X2=1.905 $Y2=4.28
r87 50 52 57.7652 $w=2.7e-07 $l=2.6e-07 $layer=POLY_cond $X=1.62 $Y=4.28
+ $X2=1.88 $Y2=4.28
r88 50 51 145.28 $w=1.7e-07 $l=1.7e-07 $layer=licon1_POLY $count=1 $X=1.62
+ $Y=4.28 $X2=1.62 $Y2=4.28
r89 48 50 35.5478 $w=2.7e-07 $l=1.6e-07 $layer=POLY_cond $X=1.46 $Y=4.28
+ $X2=1.62 $Y2=4.28
r90 47 48 5.55434 $w=2.7e-07 $l=2.5e-08 $layer=POLY_cond $X=1.435 $Y=4.28
+ $X2=1.46 $Y2=4.28
r91 44 46 5.55434 $w=2.7e-07 $l=2.5e-08 $layer=POLY_cond $X=0.94 $Y=4.28
+ $X2=0.965 $Y2=4.28
r92 44 45 72.64 $w=1.7e-07 $l=3.4e-07 $layer=licon1_POLY $count=2 $X=0.94
+ $Y=4.28 $X2=0.94 $Y2=4.28
r93 42 44 93.313 $w=2.7e-07 $l=4.2e-07 $layer=POLY_cond $X=0.52 $Y=4.28 $X2=0.94
+ $Y2=4.28
r94 40 42 5.55434 $w=2.7e-07 $l=2.5e-08 $layer=POLY_cond $X=0.495 $Y=4.28
+ $X2=0.52 $Y2=4.28
r95 39 51 14.5122 $w=2.68e-07 $l=3.4e-07 $layer=LI1_cond $X=1.28 $Y=4.25
+ $X2=1.62 $Y2=4.25
r96 39 45 14.5122 $w=2.68e-07 $l=3.4e-07 $layer=LI1_cond $X=1.28 $Y=4.25
+ $X2=0.94 $Y2=4.25
r97 38 39 145.28 $w=1.7e-07 $l=1.7e-07 $layer=licon1_POLY $count=1 $X=1.28
+ $Y=4.28 $X2=1.28 $Y2=4.28
r98 36 46 19.9956 $w=2.7e-07 $l=9e-08 $layer=POLY_cond $X=1.055 $Y=4.28
+ $X2=0.965 $Y2=4.28
r99 36 38 49.9891 $w=2.7e-07 $l=2.25e-07 $layer=POLY_cond $X=1.055 $Y=4.28
+ $X2=1.28 $Y2=4.28
r100 35 47 19.9956 $w=2.7e-07 $l=9e-08 $layer=POLY_cond $X=1.345 $Y=4.28
+ $X2=1.435 $Y2=4.28
r101 35 38 14.4413 $w=2.7e-07 $l=6.5e-08 $layer=POLY_cond $X=1.345 $Y=4.28
+ $X2=1.28 $Y2=4.28
r102 33 45 10.6708 $w=2.68e-07 $l=2.5e-07 $layer=LI1_cond $X=0.69 $Y=4.25
+ $X2=0.94 $Y2=4.25
r103 29 53 12.2893 $w=1.8e-07 $l=1.35e-07 $layer=POLY_cond $X=1.905 $Y=4.145
+ $X2=1.905 $Y2=4.28
r104 29 31 268.21 $w=1.8e-07 $l=6.9e-07 $layer=POLY_cond $X=1.905 $Y=4.145
+ $X2=1.905 $Y2=3.455
r105 25 52 16.5046 $w=1.5e-07 $l=1.35e-07 $layer=POLY_cond $X=1.88 $Y=4.415
+ $X2=1.88 $Y2=4.28
r106 25 27 238.436 $w=1.5e-07 $l=4.65e-07 $layer=POLY_cond $X=1.88 $Y=4.415
+ $X2=1.88 $Y2=4.88
r107 21 48 16.5046 $w=1.5e-07 $l=1.35e-07 $layer=POLY_cond $X=1.46 $Y=4.415
+ $X2=1.46 $Y2=4.28
r108 21 23 238.436 $w=1.5e-07 $l=4.65e-07 $layer=POLY_cond $X=1.46 $Y=4.415
+ $X2=1.46 $Y2=4.88
r109 17 47 12.2893 $w=1.8e-07 $l=1.35e-07 $layer=POLY_cond $X=1.435 $Y=4.145
+ $X2=1.435 $Y2=4.28
r110 17 19 268.21 $w=1.8e-07 $l=6.9e-07 $layer=POLY_cond $X=1.435 $Y=4.145
+ $X2=1.435 $Y2=3.455
r111 13 46 12.2893 $w=1.8e-07 $l=1.35e-07 $layer=POLY_cond $X=0.965 $Y=4.145
+ $X2=0.965 $Y2=4.28
r112 13 15 268.21 $w=1.8e-07 $l=6.9e-07 $layer=POLY_cond $X=0.965 $Y=4.145
+ $X2=0.965 $Y2=3.455
r113 9 44 16.5046 $w=1.5e-07 $l=1.35e-07 $layer=POLY_cond $X=0.94 $Y=4.415
+ $X2=0.94 $Y2=4.28
r114 9 11 238.436 $w=1.5e-07 $l=4.65e-07 $layer=POLY_cond $X=0.94 $Y=4.415
+ $X2=0.94 $Y2=4.88
r115 5 42 16.5046 $w=1.5e-07 $l=1.35e-07 $layer=POLY_cond $X=0.52 $Y=4.415
+ $X2=0.52 $Y2=4.28
r116 5 7 238.436 $w=1.5e-07 $l=4.65e-07 $layer=POLY_cond $X=0.52 $Y=4.415
+ $X2=0.52 $Y2=4.88
r117 1 40 12.2893 $w=1.8e-07 $l=1.35e-07 $layer=POLY_cond $X=0.495 $Y=4.145
+ $X2=0.495 $Y2=4.28
r118 1 3 268.21 $w=1.8e-07 $l=6.9e-07 $layer=POLY_cond $X=0.495 $Y=4.145
+ $X2=0.495 $Y2=3.455
.ends

.subckt PM_SKY130_FD_SC_HDLL__MUXB16TO1_4%A_559_265# 1 2 7 9 10 11 12 14 15 17
+ 19 20 22 24 25 26 27 34 37 40 45 47 48 49 50
c118 22 0 9.37986e-20 $X=4.305 $Y=1.475
c119 20 0 1.10627e-19 $X=4.215 $Y=1.4
c120 17 0 9.37986e-20 $X=3.835 $Y=1.475
c121 12 0 9.37986e-20 $X=3.365 $Y=1.475
c122 7 0 9.37986e-20 $X=2.895 $Y=1.475
r123 45 49 8.46218 $w=3.28e-07 $l=1.65e-07 $layer=LI1_cond $X=5.585 $Y=1.77
+ $X2=5.585 $Y2=1.605
r124 41 48 8.61065 $w=1.7e-07 $l=1.65e-07 $layer=LI1_cond $X=5.505 $Y=1.395
+ $X2=5.505 $Y2=1.23
r125 41 49 13.7005 $w=1.68e-07 $l=2.1e-07 $layer=LI1_cond $X=5.505 $Y=1.395
+ $X2=5.505 $Y2=1.605
r126 40 48 8.61065 $w=1.7e-07 $l=1.65e-07 $layer=LI1_cond $X=5.505 $Y=1.065
+ $X2=5.505 $Y2=1.23
r127 40 47 15.6578 $w=1.68e-07 $l=2.4e-07 $layer=LI1_cond $X=5.505 $Y=1.065
+ $X2=5.505 $Y2=0.825
r128 35 47 6.94937 $w=2.48e-07 $l=1.25e-07 $layer=LI1_cond $X=5.545 $Y=0.7
+ $X2=5.545 $Y2=0.825
r129 35 37 11.7549 $w=2.48e-07 $l=2.55e-07 $layer=LI1_cond $X=5.545 $Y=0.7
+ $X2=5.545 $Y2=0.445
r130 34 50 55.5434 $w=2.7e-07 $l=2.5e-07 $layer=POLY_cond $X=4.875 $Y=1.23
+ $X2=4.625 $Y2=1.23
r131 33 34 145.28 $w=1.7e-07 $l=1.7e-07 $layer=licon1_POLY $count=1 $X=4.875
+ $Y=1.23 $X2=4.875 $Y2=1.23
r132 30 50 15.1848 $w=2.93e-07 $l=1.14237e-07 $layer=POLY_cond $X=4.535 $Y=1.285
+ $X2=4.625 $Y2=1.23
r133 29 33 11.8737 $w=3.28e-07 $l=3.4e-07 $layer=LI1_cond $X=4.535 $Y=1.23
+ $X2=4.875 $Y2=1.23
r134 29 30 145.28 $w=1.7e-07 $l=1.7e-07 $layer=licon1_POLY $count=1 $X=4.535
+ $Y=1.23 $X2=4.535 $Y2=1.23
r135 27 48 0.89609 $w=3.3e-07 $l=8.5e-08 $layer=LI1_cond $X=5.42 $Y=1.23
+ $X2=5.505 $Y2=1.23
r136 27 33 19.0328 $w=3.28e-07 $l=5.45e-07 $layer=LI1_cond $X=5.42 $Y=1.23
+ $X2=4.875 $Y2=1.23
r137 22 30 37.8362 $w=2.93e-07 $l=3.10805e-07 $layer=POLY_cond $X=4.305 $Y=1.475
+ $X2=4.535 $Y2=1.285
r138 22 24 131.211 $w=1.8e-07 $l=4.9e-07 $layer=POLY_cond $X=4.305 $Y=1.475
+ $X2=4.305 $Y2=1.965
r139 21 26 23.6879 $w=1.5e-07 $l=9e-08 $layer=POLY_cond $X=3.925 $Y=1.4
+ $X2=3.835 $Y2=1.4
r140 20 22 26.2537 $w=2.93e-07 $l=1.21861e-07 $layer=POLY_cond $X=4.215 $Y=1.4
+ $X2=4.305 $Y2=1.475
r141 20 21 148.702 $w=1.5e-07 $l=2.9e-07 $layer=POLY_cond $X=4.215 $Y=1.4
+ $X2=3.925 $Y2=1.4
r142 17 26 2.7459 $w=1.8e-07 $l=7.5e-08 $layer=POLY_cond $X=3.835 $Y=1.475
+ $X2=3.835 $Y2=1.4
r143 17 19 131.211 $w=1.8e-07 $l=4.9e-07 $layer=POLY_cond $X=3.835 $Y=1.475
+ $X2=3.835 $Y2=1.965
r144 16 25 23.6879 $w=1.5e-07 $l=9e-08 $layer=POLY_cond $X=3.455 $Y=1.4
+ $X2=3.365 $Y2=1.4
r145 15 26 23.6879 $w=1.5e-07 $l=9e-08 $layer=POLY_cond $X=3.745 $Y=1.4
+ $X2=3.835 $Y2=1.4
r146 15 16 148.702 $w=1.5e-07 $l=2.9e-07 $layer=POLY_cond $X=3.745 $Y=1.4
+ $X2=3.455 $Y2=1.4
r147 12 25 2.7459 $w=1.8e-07 $l=7.5e-08 $layer=POLY_cond $X=3.365 $Y=1.475
+ $X2=3.365 $Y2=1.4
r148 12 14 131.211 $w=1.8e-07 $l=4.9e-07 $layer=POLY_cond $X=3.365 $Y=1.475
+ $X2=3.365 $Y2=1.965
r149 10 25 23.6879 $w=1.5e-07 $l=9e-08 $layer=POLY_cond $X=3.275 $Y=1.4
+ $X2=3.365 $Y2=1.4
r150 10 11 148.702 $w=1.5e-07 $l=2.9e-07 $layer=POLY_cond $X=3.275 $Y=1.4
+ $X2=2.985 $Y2=1.4
r151 7 11 27.2212 $w=1.5e-07 $l=1.21861e-07 $layer=POLY_cond $X=2.895 $Y=1.475
+ $X2=2.985 $Y2=1.4
r152 7 9 131.211 $w=1.8e-07 $l=4.9e-07 $layer=POLY_cond $X=2.895 $Y=1.475
+ $X2=2.895 $Y2=1.965
r153 2 45 300 $w=1.7e-07 $l=2.05061e-07 $layer=licon1_PDIFF $count=2 $X=5.44
+ $Y=1.625 $X2=5.585 $Y2=1.77
r154 1 37 182 $w=1.7e-07 $l=2.69165e-07 $layer=licon1_NDIFF $count=1 $X=5.45
+ $Y=0.235 $X2=5.585 $Y2=0.445
.ends

.subckt PM_SKY130_FD_SC_HDLL__MUXB16TO1_4%A_559_793# 1 2 7 9 10 11 12 14 15 17
+ 19 20 22 24 25 26 27 34 37 40 43 45 47 48 49 50
c124 22 0 9.37986e-20 $X=4.305 $Y=3.965
c125 20 0 1.10627e-19 $X=4.215 $Y=4.04
c126 17 0 9.37986e-20 $X=3.835 $Y=3.965
c127 12 0 9.37986e-20 $X=3.365 $Y=3.965
c128 7 0 9.37986e-20 $X=2.895 $Y=3.965
r129 43 49 6.94937 $w=2.48e-07 $l=1.25e-07 $layer=LI1_cond $X=5.545 $Y=4.74
+ $X2=5.545 $Y2=4.615
r130 43 45 11.7549 $w=2.48e-07 $l=2.55e-07 $layer=LI1_cond $X=5.545 $Y=4.74
+ $X2=5.545 $Y2=4.995
r131 41 48 8.61065 $w=1.7e-07 $l=1.65e-07 $layer=LI1_cond $X=5.505 $Y=4.375
+ $X2=5.505 $Y2=4.21
r132 41 49 15.6578 $w=1.68e-07 $l=2.4e-07 $layer=LI1_cond $X=5.505 $Y=4.375
+ $X2=5.505 $Y2=4.615
r133 40 48 8.61065 $w=1.7e-07 $l=1.65e-07 $layer=LI1_cond $X=5.505 $Y=4.045
+ $X2=5.505 $Y2=4.21
r134 40 47 13.7005 $w=1.68e-07 $l=2.1e-07 $layer=LI1_cond $X=5.505 $Y=4.045
+ $X2=5.505 $Y2=3.835
r135 35 47 8.46218 $w=3.28e-07 $l=1.65e-07 $layer=LI1_cond $X=5.585 $Y=3.67
+ $X2=5.585 $Y2=3.835
r136 35 37 18.5089 $w=3.28e-07 $l=5.3e-07 $layer=LI1_cond $X=5.585 $Y=3.67
+ $X2=5.585 $Y2=3.14
r137 34 50 55.5434 $w=2.7e-07 $l=2.5e-07 $layer=POLY_cond $X=4.875 $Y=4.21
+ $X2=4.625 $Y2=4.21
r138 33 34 145.28 $w=1.7e-07 $l=1.7e-07 $layer=licon1_POLY $count=1 $X=4.875
+ $Y=4.21 $X2=4.875 $Y2=4.21
r139 30 50 15.1848 $w=2.93e-07 $l=1.14237e-07 $layer=POLY_cond $X=4.535 $Y=4.155
+ $X2=4.625 $Y2=4.21
r140 29 33 11.8737 $w=3.28e-07 $l=3.4e-07 $layer=LI1_cond $X=4.535 $Y=4.21
+ $X2=4.875 $Y2=4.21
r141 29 30 145.28 $w=1.7e-07 $l=1.7e-07 $layer=licon1_POLY $count=1 $X=4.535
+ $Y=4.21 $X2=4.535 $Y2=4.21
r142 27 48 0.89609 $w=3.3e-07 $l=8.5e-08 $layer=LI1_cond $X=5.42 $Y=4.21
+ $X2=5.505 $Y2=4.21
r143 27 33 19.0328 $w=3.28e-07 $l=5.45e-07 $layer=LI1_cond $X=5.42 $Y=4.21
+ $X2=4.875 $Y2=4.21
r144 22 30 37.8362 $w=2.93e-07 $l=3.10805e-07 $layer=POLY_cond $X=4.305 $Y=3.965
+ $X2=4.535 $Y2=4.155
r145 22 24 131.211 $w=1.8e-07 $l=4.9e-07 $layer=POLY_cond $X=4.305 $Y=3.965
+ $X2=4.305 $Y2=3.475
r146 21 26 23.6879 $w=1.5e-07 $l=9e-08 $layer=POLY_cond $X=3.925 $Y=4.04
+ $X2=3.835 $Y2=4.04
r147 20 22 26.2537 $w=2.93e-07 $l=1.21861e-07 $layer=POLY_cond $X=4.215 $Y=4.04
+ $X2=4.305 $Y2=3.965
r148 20 21 148.702 $w=1.5e-07 $l=2.9e-07 $layer=POLY_cond $X=4.215 $Y=4.04
+ $X2=3.925 $Y2=4.04
r149 17 26 2.7459 $w=1.8e-07 $l=7.5e-08 $layer=POLY_cond $X=3.835 $Y=3.965
+ $X2=3.835 $Y2=4.04
r150 17 19 131.211 $w=1.8e-07 $l=4.9e-07 $layer=POLY_cond $X=3.835 $Y=3.965
+ $X2=3.835 $Y2=3.475
r151 16 25 23.6879 $w=1.5e-07 $l=9e-08 $layer=POLY_cond $X=3.455 $Y=4.04
+ $X2=3.365 $Y2=4.04
r152 15 26 23.6879 $w=1.5e-07 $l=9e-08 $layer=POLY_cond $X=3.745 $Y=4.04
+ $X2=3.835 $Y2=4.04
r153 15 16 148.702 $w=1.5e-07 $l=2.9e-07 $layer=POLY_cond $X=3.745 $Y=4.04
+ $X2=3.455 $Y2=4.04
r154 12 25 2.7459 $w=1.8e-07 $l=7.5e-08 $layer=POLY_cond $X=3.365 $Y=3.965
+ $X2=3.365 $Y2=4.04
r155 12 14 131.211 $w=1.8e-07 $l=4.9e-07 $layer=POLY_cond $X=3.365 $Y=3.965
+ $X2=3.365 $Y2=3.475
r156 10 25 23.6879 $w=1.5e-07 $l=9e-08 $layer=POLY_cond $X=3.275 $Y=4.04
+ $X2=3.365 $Y2=4.04
r157 10 11 148.702 $w=1.5e-07 $l=2.9e-07 $layer=POLY_cond $X=3.275 $Y=4.04
+ $X2=2.985 $Y2=4.04
r158 7 11 27.2212 $w=1.5e-07 $l=1.21861e-07 $layer=POLY_cond $X=2.895 $Y=3.965
+ $X2=2.985 $Y2=4.04
r159 7 9 131.211 $w=1.8e-07 $l=4.9e-07 $layer=POLY_cond $X=2.895 $Y=3.965
+ $X2=2.895 $Y2=3.475
r160 2 37 300 $w=1.7e-07 $l=2.05061e-07 $layer=licon1_PDIFF $count=2 $X=5.44
+ $Y=2.995 $X2=5.585 $Y2=3.14
r161 1 45 182 $w=1.7e-07 $l=2.69165e-07 $layer=licon1_NDIFF $count=1 $X=5.45
+ $Y=4.785 $X2=5.585 $Y2=4.995
.ends

.subckt PM_SKY130_FD_SC_HDLL__MUXB16TO1_4%S[0] 1 3 4 5 6 8 9 11 13 14 16 18 19
+ 22 23 24 26 27 29 30 32 33 35 37 38 40 41 42 43 44 45
c117 11 0 1.3204e-19 $X=3.66 $Y=0.255
r118 45 49 72.64 $w=1.7e-07 $l=3.4e-07 $layer=licon1_POLY $count=2 $X=6.2
+ $Y=1.16 $X2=6.2 $Y2=1.16
r119 38 49 64.8801 $w=3.52e-07 $l=4.82525e-07 $layer=POLY_cond $X=5.82 $Y=1.55
+ $X2=6.027 $Y2=1.16
r120 38 40 129.872 $w=1.8e-07 $l=4.85e-07 $layer=POLY_cond $X=5.82 $Y=1.55
+ $X2=5.82 $Y2=2.035
r121 35 37 93.1867 $w=1.5e-07 $l=2.9e-07 $layer=POLY_cond $X=5.795 $Y=0.735
+ $X2=5.795 $Y2=0.445
r122 34 44 13.9575 $w=1.5e-07 $l=1e-07 $layer=POLY_cond $X=5.45 $Y=0.81 $X2=5.35
+ $Y2=0.81
r123 33 49 47.9261 $w=3.52e-07 $l=4.79531e-07 $layer=POLY_cond $X=5.72 $Y=0.81
+ $X2=6.027 $Y2=1.16
r124 33 35 26.4837 $w=3.52e-07 $l=1.06066e-07 $layer=POLY_cond $X=5.72 $Y=0.81
+ $X2=5.795 $Y2=0.735
r125 33 34 138.447 $w=1.5e-07 $l=2.7e-07 $layer=POLY_cond $X=5.72 $Y=0.81
+ $X2=5.45 $Y2=0.81
r126 30 44 10.2464 $w=1.5e-07 $l=8.66025e-08 $layer=POLY_cond $X=5.375 $Y=0.735
+ $X2=5.35 $Y2=0.81
r127 30 32 93.1867 $w=1.5e-07 $l=2.9e-07 $layer=POLY_cond $X=5.375 $Y=0.735
+ $X2=5.375 $Y2=0.445
r128 27 29 129.872 $w=1.8e-07 $l=4.85e-07 $layer=POLY_cond $X=5.35 $Y=1.55
+ $X2=5.35 $Y2=2.035
r129 26 27 33.5616 $w=2e-07 $l=1e-07 $layer=POLY_cond $X=5.35 $Y=1.45 $X2=5.35
+ $Y2=1.55
r130 25 44 10.2464 $w=2e-07 $l=7.5e-08 $layer=POLY_cond $X=5.35 $Y=0.885
+ $X2=5.35 $Y2=0.81
r131 25 26 187.341 $w=2e-07 $l=5.65e-07 $layer=POLY_cond $X=5.35 $Y=0.885
+ $X2=5.35 $Y2=1.45
r132 23 44 13.9575 $w=1.5e-07 $l=1e-07 $layer=POLY_cond $X=5.25 $Y=0.81 $X2=5.35
+ $Y2=0.81
r133 23 24 171.777 $w=1.5e-07 $l=3.35e-07 $layer=POLY_cond $X=5.25 $Y=0.81
+ $X2=4.915 $Y2=0.81
r134 22 24 26.9307 $w=1.5e-07 $l=1.06066e-07 $layer=POLY_cond $X=4.84 $Y=0.735
+ $X2=4.915 $Y2=0.81
r135 21 22 246.128 $w=1.5e-07 $l=4.8e-07 $layer=POLY_cond $X=4.84 $Y=0.255
+ $X2=4.84 $Y2=0.735
r136 20 43 20.4101 $w=1.5e-07 $l=7.5e-08 $layer=POLY_cond $X=4.155 $Y=0.18
+ $X2=4.08 $Y2=0.18
r137 19 21 26.9307 $w=1.5e-07 $l=1.06066e-07 $layer=POLY_cond $X=4.765 $Y=0.18
+ $X2=4.84 $Y2=0.255
r138 19 20 312.787 $w=1.5e-07 $l=6.1e-07 $layer=POLY_cond $X=4.765 $Y=0.18
+ $X2=4.155 $Y2=0.18
r139 16 43 5.30422 $w=1.5e-07 $l=7.5e-08 $layer=POLY_cond $X=4.08 $Y=0.255
+ $X2=4.08 $Y2=0.18
r140 16 18 107.647 $w=1.5e-07 $l=3.35e-07 $layer=POLY_cond $X=4.08 $Y=0.255
+ $X2=4.08 $Y2=0.59
r141 15 42 20.4101 $w=1.5e-07 $l=7.5e-08 $layer=POLY_cond $X=3.735 $Y=0.18
+ $X2=3.66 $Y2=0.18
r142 14 43 20.4101 $w=1.5e-07 $l=7.5e-08 $layer=POLY_cond $X=4.005 $Y=0.18
+ $X2=4.08 $Y2=0.18
r143 14 15 138.447 $w=1.5e-07 $l=2.7e-07 $layer=POLY_cond $X=4.005 $Y=0.18
+ $X2=3.735 $Y2=0.18
r144 11 42 5.30422 $w=1.5e-07 $l=7.5e-08 $layer=POLY_cond $X=3.66 $Y=0.255
+ $X2=3.66 $Y2=0.18
r145 11 13 107.647 $w=1.5e-07 $l=3.35e-07 $layer=POLY_cond $X=3.66 $Y=0.255
+ $X2=3.66 $Y2=0.59
r146 10 41 20.4101 $w=1.5e-07 $l=7.5e-08 $layer=POLY_cond $X=3.315 $Y=0.18
+ $X2=3.24 $Y2=0.18
r147 9 42 20.4101 $w=1.5e-07 $l=7.5e-08 $layer=POLY_cond $X=3.585 $Y=0.18
+ $X2=3.66 $Y2=0.18
r148 9 10 138.447 $w=1.5e-07 $l=2.7e-07 $layer=POLY_cond $X=3.585 $Y=0.18
+ $X2=3.315 $Y2=0.18
r149 6 41 5.30422 $w=1.5e-07 $l=7.5e-08 $layer=POLY_cond $X=3.24 $Y=0.255
+ $X2=3.24 $Y2=0.18
r150 6 8 107.647 $w=1.5e-07 $l=3.35e-07 $layer=POLY_cond $X=3.24 $Y=0.255
+ $X2=3.24 $Y2=0.59
r151 4 41 20.4101 $w=1.5e-07 $l=7.5e-08 $layer=POLY_cond $X=3.165 $Y=0.18
+ $X2=3.24 $Y2=0.18
r152 4 5 138.447 $w=1.5e-07 $l=2.7e-07 $layer=POLY_cond $X=3.165 $Y=0.18
+ $X2=2.895 $Y2=0.18
r153 1 5 26.9307 $w=1.5e-07 $l=1.06066e-07 $layer=POLY_cond $X=2.82 $Y=0.255
+ $X2=2.895 $Y2=0.18
r154 1 3 107.647 $w=1.5e-07 $l=3.35e-07 $layer=POLY_cond $X=2.82 $Y=0.255
+ $X2=2.82 $Y2=0.59
.ends

.subckt PM_SKY130_FD_SC_HDLL__MUXB16TO1_4%S[8] 1 3 4 5 6 8 9 11 13 14 16 18 19
+ 22 23 24 25 26 27 29 30 32 33 35 37 38 40 41 42 43 44 45
c125 11 0 1.3204e-19 $X=3.66 $Y=5.185
r126 45 48 72.64 $w=1.7e-07 $l=3.4e-07 $layer=licon1_POLY $count=2 $X=6.2
+ $Y=4.28 $X2=6.2 $Y2=4.28
r127 38 48 64.8801 $w=3.52e-07 $l=4.82525e-07 $layer=POLY_cond $X=5.82 $Y=3.89
+ $X2=6.027 $Y2=4.28
r128 38 40 129.872 $w=1.8e-07 $l=4.85e-07 $layer=POLY_cond $X=5.82 $Y=3.89
+ $X2=5.82 $Y2=3.405
r129 35 37 93.1867 $w=1.5e-07 $l=2.9e-07 $layer=POLY_cond $X=5.795 $Y=4.705
+ $X2=5.795 $Y2=4.995
r130 34 44 13.9575 $w=1.5e-07 $l=1e-07 $layer=POLY_cond $X=5.45 $Y=4.63 $X2=5.35
+ $Y2=4.63
r131 33 35 26.4837 $w=3.52e-07 $l=1.06066e-07 $layer=POLY_cond $X=5.72 $Y=4.63
+ $X2=5.795 $Y2=4.705
r132 33 48 47.9261 $w=3.52e-07 $l=4.79531e-07 $layer=POLY_cond $X=5.72 $Y=4.63
+ $X2=6.027 $Y2=4.28
r133 33 34 138.447 $w=1.5e-07 $l=2.7e-07 $layer=POLY_cond $X=5.72 $Y=4.63
+ $X2=5.45 $Y2=4.63
r134 30 44 10.2464 $w=1.5e-07 $l=8.66025e-08 $layer=POLY_cond $X=5.375 $Y=4.705
+ $X2=5.35 $Y2=4.63
r135 30 32 93.1867 $w=1.5e-07 $l=2.9e-07 $layer=POLY_cond $X=5.375 $Y=4.705
+ $X2=5.375 $Y2=4.995
r136 27 29 129.872 $w=1.8e-07 $l=4.85e-07 $layer=POLY_cond $X=5.35 $Y=3.89
+ $X2=5.35 $Y2=3.405
r137 26 44 10.2464 $w=2e-07 $l=7.5e-08 $layer=POLY_cond $X=5.35 $Y=4.555
+ $X2=5.35 $Y2=4.63
r138 25 27 33.5616 $w=2e-07 $l=1e-07 $layer=POLY_cond $X=5.35 $Y=3.99 $X2=5.35
+ $Y2=3.89
r139 25 26 187.341 $w=2e-07 $l=5.65e-07 $layer=POLY_cond $X=5.35 $Y=3.99
+ $X2=5.35 $Y2=4.555
r140 23 44 13.9575 $w=1.5e-07 $l=1e-07 $layer=POLY_cond $X=5.25 $Y=4.63 $X2=5.35
+ $Y2=4.63
r141 23 24 171.777 $w=1.5e-07 $l=3.35e-07 $layer=POLY_cond $X=5.25 $Y=4.63
+ $X2=4.915 $Y2=4.63
r142 21 24 26.9307 $w=1.5e-07 $l=1.06066e-07 $layer=POLY_cond $X=4.84 $Y=4.705
+ $X2=4.915 $Y2=4.63
r143 21 22 246.128 $w=1.5e-07 $l=4.8e-07 $layer=POLY_cond $X=4.84 $Y=4.705
+ $X2=4.84 $Y2=5.185
r144 20 43 20.4101 $w=1.5e-07 $l=7.5e-08 $layer=POLY_cond $X=4.155 $Y=5.26
+ $X2=4.08 $Y2=5.26
r145 19 22 26.9307 $w=1.5e-07 $l=1.06066e-07 $layer=POLY_cond $X=4.765 $Y=5.26
+ $X2=4.84 $Y2=5.185
r146 19 20 312.787 $w=1.5e-07 $l=6.1e-07 $layer=POLY_cond $X=4.765 $Y=5.26
+ $X2=4.155 $Y2=5.26
r147 16 43 5.30422 $w=1.5e-07 $l=7.5e-08 $layer=POLY_cond $X=4.08 $Y=5.185
+ $X2=4.08 $Y2=5.26
r148 16 18 107.647 $w=1.5e-07 $l=3.35e-07 $layer=POLY_cond $X=4.08 $Y=5.185
+ $X2=4.08 $Y2=4.85
r149 15 42 20.4101 $w=1.5e-07 $l=7.5e-08 $layer=POLY_cond $X=3.735 $Y=5.26
+ $X2=3.66 $Y2=5.26
r150 14 43 20.4101 $w=1.5e-07 $l=7.5e-08 $layer=POLY_cond $X=4.005 $Y=5.26
+ $X2=4.08 $Y2=5.26
r151 14 15 138.447 $w=1.5e-07 $l=2.7e-07 $layer=POLY_cond $X=4.005 $Y=5.26
+ $X2=3.735 $Y2=5.26
r152 11 42 5.30422 $w=1.5e-07 $l=7.5e-08 $layer=POLY_cond $X=3.66 $Y=5.185
+ $X2=3.66 $Y2=5.26
r153 11 13 107.647 $w=1.5e-07 $l=3.35e-07 $layer=POLY_cond $X=3.66 $Y=5.185
+ $X2=3.66 $Y2=4.85
r154 10 41 20.4101 $w=1.5e-07 $l=7.5e-08 $layer=POLY_cond $X=3.315 $Y=5.26
+ $X2=3.24 $Y2=5.26
r155 9 42 20.4101 $w=1.5e-07 $l=7.5e-08 $layer=POLY_cond $X=3.585 $Y=5.26
+ $X2=3.66 $Y2=5.26
r156 9 10 138.447 $w=1.5e-07 $l=2.7e-07 $layer=POLY_cond $X=3.585 $Y=5.26
+ $X2=3.315 $Y2=5.26
r157 6 41 5.30422 $w=1.5e-07 $l=7.5e-08 $layer=POLY_cond $X=3.24 $Y=5.185
+ $X2=3.24 $Y2=5.26
r158 6 8 107.647 $w=1.5e-07 $l=3.35e-07 $layer=POLY_cond $X=3.24 $Y=5.185
+ $X2=3.24 $Y2=4.85
r159 4 41 20.4101 $w=1.5e-07 $l=7.5e-08 $layer=POLY_cond $X=3.165 $Y=5.26
+ $X2=3.24 $Y2=5.26
r160 4 5 138.447 $w=1.5e-07 $l=2.7e-07 $layer=POLY_cond $X=3.165 $Y=5.26
+ $X2=2.895 $Y2=5.26
r161 1 5 26.9307 $w=1.5e-07 $l=1.06066e-07 $layer=POLY_cond $X=2.82 $Y=5.185
+ $X2=2.895 $Y2=5.26
r162 1 3 107.647 $w=1.5e-07 $l=3.35e-07 $layer=POLY_cond $X=2.82 $Y=5.185
+ $X2=2.82 $Y2=4.85
.ends

.subckt PM_SKY130_FD_SC_HDLL__MUXB16TO1_4%S[1] 1 3 5 6 8 9 11 13 15 16 18 19 22
+ 23 24 25 27 28 30 32 33 35 37 38 40 42 43 44 45 46 47 52
c120 30 0 1.3204e-19 $X=9.22 $Y=0.255
r121 47 52 12.2229 $w=3.28e-07 $l=3.5e-07 $layer=LI1_cond $X=6.67 $Y=1.16
+ $X2=7.02 $Y2=1.16
r122 40 42 107.647 $w=1.5e-07 $l=3.35e-07 $layer=POLY_cond $X=10.06 $Y=0.255
+ $X2=10.06 $Y2=0.59
r123 39 46 20.4101 $w=1.5e-07 $l=7.5e-08 $layer=POLY_cond $X=9.715 $Y=0.18
+ $X2=9.64 $Y2=0.18
r124 38 40 26.9307 $w=1.5e-07 $l=1.06066e-07 $layer=POLY_cond $X=9.985 $Y=0.18
+ $X2=10.06 $Y2=0.255
r125 38 39 138.447 $w=1.5e-07 $l=2.7e-07 $layer=POLY_cond $X=9.985 $Y=0.18
+ $X2=9.715 $Y2=0.18
r126 35 46 5.30422 $w=1.5e-07 $l=7.5e-08 $layer=POLY_cond $X=9.64 $Y=0.255
+ $X2=9.64 $Y2=0.18
r127 35 37 107.647 $w=1.5e-07 $l=3.35e-07 $layer=POLY_cond $X=9.64 $Y=0.255
+ $X2=9.64 $Y2=0.59
r128 34 45 20.4101 $w=1.5e-07 $l=7.5e-08 $layer=POLY_cond $X=9.295 $Y=0.18
+ $X2=9.22 $Y2=0.18
r129 33 46 20.4101 $w=1.5e-07 $l=7.5e-08 $layer=POLY_cond $X=9.565 $Y=0.18
+ $X2=9.64 $Y2=0.18
r130 33 34 138.447 $w=1.5e-07 $l=2.7e-07 $layer=POLY_cond $X=9.565 $Y=0.18
+ $X2=9.295 $Y2=0.18
r131 30 45 5.30422 $w=1.5e-07 $l=7.5e-08 $layer=POLY_cond $X=9.22 $Y=0.255
+ $X2=9.22 $Y2=0.18
r132 30 32 107.647 $w=1.5e-07 $l=3.35e-07 $layer=POLY_cond $X=9.22 $Y=0.255
+ $X2=9.22 $Y2=0.59
r133 29 44 20.4101 $w=1.5e-07 $l=7.5e-08 $layer=POLY_cond $X=8.875 $Y=0.18
+ $X2=8.8 $Y2=0.18
r134 28 45 20.4101 $w=1.5e-07 $l=7.5e-08 $layer=POLY_cond $X=9.145 $Y=0.18
+ $X2=9.22 $Y2=0.18
r135 28 29 138.447 $w=1.5e-07 $l=2.7e-07 $layer=POLY_cond $X=9.145 $Y=0.18
+ $X2=8.875 $Y2=0.18
r136 25 44 5.30422 $w=1.5e-07 $l=7.5e-08 $layer=POLY_cond $X=8.8 $Y=0.255
+ $X2=8.8 $Y2=0.18
r137 25 27 107.647 $w=1.5e-07 $l=3.35e-07 $layer=POLY_cond $X=8.8 $Y=0.255
+ $X2=8.8 $Y2=0.59
r138 23 44 20.4101 $w=1.5e-07 $l=7.5e-08 $layer=POLY_cond $X=8.725 $Y=0.18
+ $X2=8.8 $Y2=0.18
r139 23 24 312.787 $w=1.5e-07 $l=6.1e-07 $layer=POLY_cond $X=8.725 $Y=0.18
+ $X2=8.115 $Y2=0.18
r140 21 24 26.9307 $w=1.5e-07 $l=1.06066e-07 $layer=POLY_cond $X=8.04 $Y=0.255
+ $X2=8.115 $Y2=0.18
r141 21 22 246.128 $w=1.5e-07 $l=4.8e-07 $layer=POLY_cond $X=8.04 $Y=0.255
+ $X2=8.04 $Y2=0.735
r142 20 43 13.9575 $w=1.5e-07 $l=1e-07 $layer=POLY_cond $X=7.63 $Y=0.81 $X2=7.53
+ $Y2=0.81
r143 19 22 26.9307 $w=1.5e-07 $l=1.06066e-07 $layer=POLY_cond $X=7.965 $Y=0.81
+ $X2=8.04 $Y2=0.735
r144 19 20 171.777 $w=1.5e-07 $l=3.35e-07 $layer=POLY_cond $X=7.965 $Y=0.81
+ $X2=7.63 $Y2=0.81
r145 16 18 129.872 $w=1.8e-07 $l=4.85e-07 $layer=POLY_cond $X=7.53 $Y=1.55
+ $X2=7.53 $Y2=2.035
r146 15 16 33.5616 $w=2e-07 $l=1e-07 $layer=POLY_cond $X=7.53 $Y=1.45 $X2=7.53
+ $Y2=1.55
r147 14 43 10.2464 $w=2e-07 $l=7.5e-08 $layer=POLY_cond $X=7.53 $Y=0.885
+ $X2=7.53 $Y2=0.81
r148 14 15 187.341 $w=2e-07 $l=5.65e-07 $layer=POLY_cond $X=7.53 $Y=0.885
+ $X2=7.53 $Y2=1.45
r149 11 43 10.2464 $w=1.5e-07 $l=8.66025e-08 $layer=POLY_cond $X=7.505 $Y=0.735
+ $X2=7.53 $Y2=0.81
r150 11 13 93.1867 $w=1.5e-07 $l=2.9e-07 $layer=POLY_cond $X=7.505 $Y=0.735
+ $X2=7.505 $Y2=0.445
r151 10 49 7.64856 $w=1.5e-07 $l=1e-07 $layer=POLY_cond $X=7.16 $Y=0.81 $X2=7.06
+ $Y2=0.81
r152 9 43 13.9575 $w=1.5e-07 $l=1e-07 $layer=POLY_cond $X=7.43 $Y=0.81 $X2=7.53
+ $Y2=0.81
r153 9 10 138.447 $w=1.5e-07 $l=2.7e-07 $layer=POLY_cond $X=7.43 $Y=0.81
+ $X2=7.16 $Y2=0.81
r154 6 49 21.4346 $w=1.84e-07 $l=8.66025e-08 $layer=POLY_cond $X=7.085 $Y=0.735
+ $X2=7.06 $Y2=0.81
r155 6 8 93.1867 $w=1.5e-07 $l=2.9e-07 $layer=POLY_cond $X=7.085 $Y=0.735
+ $X2=7.085 $Y2=0.445
r156 3 5 129.872 $w=1.8e-07 $l=4.85e-07 $layer=POLY_cond $X=7.06 $Y=1.55
+ $X2=7.06 $Y2=2.035
r157 1 3 102.163 $w=1.84e-07 $l=3.9e-07 $layer=POLY_cond $X=7.06 $Y=1.16
+ $X2=7.06 $Y2=1.55
r158 1 52 72.64 $w=1.7e-07 $l=3.4e-07 $layer=licon1_POLY $count=2 $X=7.02
+ $Y=1.16 $X2=7.02 $Y2=1.16
r159 1 49 91.6848 $w=1.84e-07 $l=3.5e-07 $layer=POLY_cond $X=7.06 $Y=1.16
+ $X2=7.06 $Y2=0.81
.ends

.subckt PM_SKY130_FD_SC_HDLL__MUXB16TO1_4%S[9] 1 3 5 6 8 9 11 12 13 15 16 18 19
+ 22 23 24 25 27 28 30 32 33 35 37 38 40 42 43 44 45 46 47 51
c128 30 0 1.3204e-19 $X=9.22 $Y=5.185
r129 47 51 12.2229 $w=3.28e-07 $l=3.5e-07 $layer=LI1_cond $X=6.67 $Y=4.28
+ $X2=7.02 $Y2=4.28
r130 40 42 107.647 $w=1.5e-07 $l=3.35e-07 $layer=POLY_cond $X=10.06 $Y=5.185
+ $X2=10.06 $Y2=4.85
r131 39 46 20.4101 $w=1.5e-07 $l=7.5e-08 $layer=POLY_cond $X=9.715 $Y=5.26
+ $X2=9.64 $Y2=5.26
r132 38 40 26.9307 $w=1.5e-07 $l=1.06066e-07 $layer=POLY_cond $X=9.985 $Y=5.26
+ $X2=10.06 $Y2=5.185
r133 38 39 138.447 $w=1.5e-07 $l=2.7e-07 $layer=POLY_cond $X=9.985 $Y=5.26
+ $X2=9.715 $Y2=5.26
r134 35 46 5.30422 $w=1.5e-07 $l=7.5e-08 $layer=POLY_cond $X=9.64 $Y=5.185
+ $X2=9.64 $Y2=5.26
r135 35 37 107.647 $w=1.5e-07 $l=3.35e-07 $layer=POLY_cond $X=9.64 $Y=5.185
+ $X2=9.64 $Y2=4.85
r136 34 45 20.4101 $w=1.5e-07 $l=7.5e-08 $layer=POLY_cond $X=9.295 $Y=5.26
+ $X2=9.22 $Y2=5.26
r137 33 46 20.4101 $w=1.5e-07 $l=7.5e-08 $layer=POLY_cond $X=9.565 $Y=5.26
+ $X2=9.64 $Y2=5.26
r138 33 34 138.447 $w=1.5e-07 $l=2.7e-07 $layer=POLY_cond $X=9.565 $Y=5.26
+ $X2=9.295 $Y2=5.26
r139 30 45 5.30422 $w=1.5e-07 $l=7.5e-08 $layer=POLY_cond $X=9.22 $Y=5.185
+ $X2=9.22 $Y2=5.26
r140 30 32 107.647 $w=1.5e-07 $l=3.35e-07 $layer=POLY_cond $X=9.22 $Y=5.185
+ $X2=9.22 $Y2=4.85
r141 29 44 20.4101 $w=1.5e-07 $l=7.5e-08 $layer=POLY_cond $X=8.875 $Y=5.26
+ $X2=8.8 $Y2=5.26
r142 28 45 20.4101 $w=1.5e-07 $l=7.5e-08 $layer=POLY_cond $X=9.145 $Y=5.26
+ $X2=9.22 $Y2=5.26
r143 28 29 138.447 $w=1.5e-07 $l=2.7e-07 $layer=POLY_cond $X=9.145 $Y=5.26
+ $X2=8.875 $Y2=5.26
r144 25 44 5.30422 $w=1.5e-07 $l=7.5e-08 $layer=POLY_cond $X=8.8 $Y=5.185
+ $X2=8.8 $Y2=5.26
r145 25 27 107.647 $w=1.5e-07 $l=3.35e-07 $layer=POLY_cond $X=8.8 $Y=5.185
+ $X2=8.8 $Y2=4.85
r146 23 44 20.4101 $w=1.5e-07 $l=7.5e-08 $layer=POLY_cond $X=8.725 $Y=5.26
+ $X2=8.8 $Y2=5.26
r147 23 24 312.787 $w=1.5e-07 $l=6.1e-07 $layer=POLY_cond $X=8.725 $Y=5.26
+ $X2=8.115 $Y2=5.26
r148 22 24 26.9307 $w=1.5e-07 $l=1.06066e-07 $layer=POLY_cond $X=8.04 $Y=5.185
+ $X2=8.115 $Y2=5.26
r149 21 22 246.128 $w=1.5e-07 $l=4.8e-07 $layer=POLY_cond $X=8.04 $Y=4.705
+ $X2=8.04 $Y2=5.185
r150 20 43 13.9575 $w=1.5e-07 $l=1e-07 $layer=POLY_cond $X=7.63 $Y=4.63 $X2=7.53
+ $Y2=4.63
r151 19 21 26.9307 $w=1.5e-07 $l=1.06066e-07 $layer=POLY_cond $X=7.965 $Y=4.63
+ $X2=8.04 $Y2=4.705
r152 19 20 171.777 $w=1.5e-07 $l=3.35e-07 $layer=POLY_cond $X=7.965 $Y=4.63
+ $X2=7.63 $Y2=4.63
r153 16 18 129.872 $w=1.8e-07 $l=4.85e-07 $layer=POLY_cond $X=7.53 $Y=3.89
+ $X2=7.53 $Y2=3.405
r154 13 43 10.2464 $w=1.5e-07 $l=8.66025e-08 $layer=POLY_cond $X=7.505 $Y=4.705
+ $X2=7.53 $Y2=4.63
r155 13 15 93.1867 $w=1.5e-07 $l=2.9e-07 $layer=POLY_cond $X=7.505 $Y=4.705
+ $X2=7.505 $Y2=4.995
r156 12 43 10.2464 $w=2e-07 $l=7.5e-08 $layer=POLY_cond $X=7.53 $Y=4.555
+ $X2=7.53 $Y2=4.63
r157 11 16 33.5616 $w=2e-07 $l=1e-07 $layer=POLY_cond $X=7.53 $Y=3.99 $X2=7.53
+ $Y2=3.89
r158 11 12 187.341 $w=2e-07 $l=5.65e-07 $layer=POLY_cond $X=7.53 $Y=3.99
+ $X2=7.53 $Y2=4.555
r159 10 52 7.64856 $w=1.5e-07 $l=1e-07 $layer=POLY_cond $X=7.16 $Y=4.63 $X2=7.06
+ $Y2=4.63
r160 9 43 13.9575 $w=1.5e-07 $l=1e-07 $layer=POLY_cond $X=7.43 $Y=4.63 $X2=7.53
+ $Y2=4.63
r161 9 10 138.447 $w=1.5e-07 $l=2.7e-07 $layer=POLY_cond $X=7.43 $Y=4.63
+ $X2=7.16 $Y2=4.63
r162 6 52 21.4346 $w=1.84e-07 $l=8.66025e-08 $layer=POLY_cond $X=7.085 $Y=4.705
+ $X2=7.06 $Y2=4.63
r163 6 8 93.1867 $w=1.5e-07 $l=2.9e-07 $layer=POLY_cond $X=7.085 $Y=4.705
+ $X2=7.085 $Y2=4.995
r164 3 5 129.872 $w=1.8e-07 $l=4.85e-07 $layer=POLY_cond $X=7.06 $Y=3.89
+ $X2=7.06 $Y2=3.405
r165 1 52 91.6848 $w=1.84e-07 $l=3.5e-07 $layer=POLY_cond $X=7.06 $Y=4.28
+ $X2=7.06 $Y2=4.63
r166 1 51 72.64 $w=1.7e-07 $l=3.4e-07 $layer=licon1_POLY $count=2 $X=7.02
+ $Y=4.28 $X2=7.02 $Y2=4.28
r167 1 3 102.163 $w=1.84e-07 $l=3.9e-07 $layer=POLY_cond $X=7.06 $Y=4.28
+ $X2=7.06 $Y2=3.89
.ends

.subckt PM_SKY130_FD_SC_HDLL__MUXB16TO1_4%A_1430_325# 1 2 7 9 10 11 12 14 15 17