* File: sky130_fd_sc_hdll__muxb16to1_4.spice
* Created: Wed Sep  2 08:35:30 2020
* Program "Calibre xRC"
* Version "v2018.4_34.26"
* 
.include "sky130_fd_sc_hdll__muxb16to1_4.pex.spice"
.subckt sky130_fd_sc_hdll__muxb16to1_4  VNB VPB D[0] D[8] S[0] S[8] S[1] S[9]
+ D[1] D[9] D[2] D[10] S[2] S[10] S[3] S[11] D[3] D[11] D[4] D[12] S[4] S[12]
+ S[5] S[13] D[5] D[13] D[6] D[14] S[6] S[14] S[7] S[15] D[7] D[15] VPWR Z VGND
* 
* VGND	VGND
* Z	Z
* VPWR	VPWR
* D[15]	D[15]
* D[7]	D[7]
* S[15]	S[15]
* S[7]	S[7]
* S[14]	S[14]
* S[6]	S[6]
* D[14]	D[14]
* D[6]	D[6]
* D[13]	D[13]
* D[5]	D[5]
* S[13]	S[13]
* S[5]	S[5]
* S[12]	S[12]
* S[4]	S[4]
* D[12]	D[12]
* D[4]	D[4]
* D[11]	D[11]
* D[3]	D[3]
* S[11]	S[11]
* S[3]	S[3]
* S[10]	S[10]
* S[2]	S[2]
* D[10]	D[10]
* D[2]	D[2]
* D[9]	D[9]
* D[1]	D[1]
* S[9]	S[9]
* S[1]	S[1]
* S[8]	S[8]
* S[0]	S[0]
* D[8]	D[8]
* D[0]	D[0]
* VPB	VPB
* VNB	VNB
MM1084 N_VGND_M1084_d N_D[0]_M1084_g N_A_119_47#_M1084_s VNB NSHORT L=0.15
+ W=0.65 AD=0.2015 AS=0.08775 PD=1.92 PS=0.92 NRD=0 NRS=0 M=1 R=4.33333
+ SA=75000.2 SB=75001.5 A=0.0975 P=1.6 MULT=1
MM1085 N_VGND_M1085_d N_D[8]_M1085_g N_A_119_911#_M1085_s VNB NSHORT L=0.15
+ W=0.65 AD=0.2015 AS=0.08775 PD=1.92 PS=0.92 NRD=0 NRS=0 M=1 R=4.33333
+ SA=75000.2 SB=75001.5 A=0.0975 P=1.6 MULT=1
MM1219 N_VGND_M1219_d N_D[0]_M1219_g N_A_119_47#_M1084_s VNB NSHORT L=0.15
+ W=0.65 AD=0.12025 AS=0.08775 PD=1.02 PS=0.92 NRD=8.304 NRS=0 M=1 R=4.33333
+ SA=75000.7 SB=75001.1 A=0.0975 P=1.6 MULT=1
MM1090 N_VGND_M1090_d N_D[8]_M1090_g N_A_119_911#_M1085_s VNB NSHORT L=0.15
+ W=0.65 AD=0.12025 AS=0.08775 PD=1.02 PS=0.92 NRD=8.304 NRS=0 M=1 R=4.33333
+ SA=75000.7 SB=75001.1 A=0.0975 P=1.6 MULT=1
MM1300 N_VGND_M1219_d N_D[0]_M1300_g N_A_119_47#_M1300_s VNB NSHORT L=0.15
+ W=0.65 AD=0.12025 AS=0.08775 PD=1.02 PS=0.92 NRD=8.304 NRS=0 M=1 R=4.33333
+ SA=75001.2 SB=75000.6 A=0.0975 P=1.6 MULT=1
MM1235 N_VGND_M1090_d N_D[8]_M1235_g N_A_119_911#_M1235_s VNB NSHORT L=0.15
+ W=0.65 AD=0.12025 AS=0.08775 PD=1.02 PS=0.92 NRD=8.304 NRS=0 M=1 R=4.33333
+ SA=75001.2 SB=75000.6 A=0.0975 P=1.6 MULT=1
MM1317 N_VGND_M1317_d N_D[0]_M1317_g N_A_119_47#_M1300_s VNB NSHORT L=0.15
+ W=0.65 AD=0.169 AS=0.08775 PD=1.82 PS=0.92 NRD=0 NRS=0 M=1 R=4.33333
+ SA=75001.6 SB=75000.2 A=0.0975 P=1.6 MULT=1
MM1240 N_VGND_M1240_d N_D[8]_M1240_g N_A_119_911#_M1235_s VNB NSHORT L=0.15
+ W=0.65 AD=0.169 AS=0.08775 PD=1.82 PS=0.92 NRD=0 NRS=0 M=1 R=4.33333
+ SA=75001.6 SB=75000.2 A=0.0975 P=1.6 MULT=1
MM1053 N_A_119_47#_M1053_d N_S[0]_M1053_g N_Z_M1053_s VNB NSHORT L=0.15 W=0.52
+ AD=0.1352 AS=0.0702 PD=1.56 PS=0.79 NRD=0 NRS=0 M=1 R=3.46667 SA=75000.2
+ SB=75001.4 A=0.078 P=1.34 MULT=1
MM1070 N_Z_M1070_d N_S[8]_M1070_g N_A_119_911#_M1070_s VNB NSHORT L=0.15 W=0.52
+ AD=0.0702 AS=0.1352 PD=0.79 PS=1.56 NRD=0 NRS=0 M=1 R=3.46667 SA=75000.2
+ SB=75001.4 A=0.078 P=1.34 MULT=1
MM1074 N_A_119_47#_M1074_d N_S[0]_M1074_g N_Z_M1053_s VNB NSHORT L=0.15 W=0.52
+ AD=0.0702 AS=0.0702 PD=0.79 PS=0.79 NRD=0 NRS=0 M=1 R=3.46667 SA=75000.6
+ SB=75001 A=0.078 P=1.34 MULT=1
MM1159 N_Z_M1070_d N_S[8]_M1159_g N_A_119_911#_M1159_s VNB NSHORT L=0.15 W=0.52
+ AD=0.0702 AS=0.0702 PD=0.79 PS=0.79 NRD=0 NRS=0 M=1 R=3.46667 SA=75000.6
+ SB=75001 A=0.078 P=1.34 MULT=1
MM1105 N_A_119_47#_M1074_d N_S[0]_M1105_g N_Z_M1105_s VNB NSHORT L=0.15 W=0.52
+ AD=0.0702 AS=0.0702 PD=0.79 PS=0.79 NRD=0 NRS=0 M=1 R=3.46667 SA=75001
+ SB=75000.6 A=0.078 P=1.34 MULT=1
MM1236 N_Z_M1236_d N_S[8]_M1236_g N_A_119_911#_M1159_s VNB NSHORT L=0.15 W=0.52
+ AD=0.0702 AS=0.0702 PD=0.79 PS=0.79 NRD=0 NRS=0 M=1 R=3.46667 SA=75001
+ SB=75000.6 A=0.078 P=1.34 MULT=1
MM1125 N_A_119_47#_M1125_d N_S[0]_M1125_g N_Z_M1105_s VNB NSHORT L=0.15 W=0.52
+ AD=0.1352 AS=0.0702 PD=1.56 PS=0.79 NRD=0 NRS=0 M=1 R=3.46667 SA=75001.4
+ SB=75000.2 A=0.078 P=1.34 MULT=1
MM1302 N_Z_M1236_d N_S[8]_M1302_g N_A_119_911#_M1302_s VNB NSHORT L=0.15 W=0.52
+ AD=0.0702 AS=0.1352 PD=0.79 PS=1.56 NRD=0 NRS=0 M=1 R=3.46667 SA=75001.4
+ SB=75000.2 A=0.078 P=1.34 MULT=1
MM1139 N_A_559_265#_M1139_d N_S[0]_M1139_g N_VGND_M1139_s VNB NSHORT L=0.15
+ W=0.42 AD=0.0567 AS=0.1092 PD=0.69 PS=1.36 NRD=0 NRS=0 M=1 R=2.8 SA=75000.2
+ SB=75000.6 A=0.063 P=1.14 MULT=1
MM1017 N_A_559_793#_M1017_d N_S[8]_M1017_g N_VGND_M1017_s VNB NSHORT L=0.15
+ W=0.42 AD=0.0567 AS=0.1092 PD=0.69 PS=1.36 NRD=0 NRS=0 M=1 R=2.8 SA=75000.2
+ SB=75000.6 A=0.063 P=1.14 MULT=1
MM1192 N_A_559_265#_M1139_d N_S[0]_M1192_g N_VGND_M1192_s VNB NSHORT L=0.15
+ W=0.42 AD=0.0567 AS=0.1092 PD=0.69 PS=1.36 NRD=0 NRS=0 M=1 R=2.8 SA=75000.6
+ SB=75000.2 A=0.063 P=1.14 MULT=1
MM1078 N_A_559_793#_M1017_d N_S[8]_M1078_g N_VGND_M1078_s VNB NSHORT L=0.15
+ W=0.42 AD=0.0567 AS=0.1092 PD=0.69 PS=1.36 NRD=0 NRS=0 M=1 R=2.8 SA=75000.6
+ SB=75000.2 A=0.063 P=1.14 MULT=1
MM1241 N_VGND_M1241_d N_S[1]_M1241_g N_A_1430_325#_M1241_s VNB NSHORT L=0.15
+ W=0.42 AD=0.1092 AS=0.0567 PD=1.36 PS=0.69 NRD=0 NRS=0 M=1 R=2.8 SA=75000.2
+ SB=75000.6 A=0.063 P=1.14 MULT=1
MM1008 N_A_1430_599#_M1008_d N_S[9]_M1008_g N_VGND_M1008_s VNB NSHORT L=0.15
+ W=0.42 AD=0.0567 AS=0.1092 PD=0.69 PS=1.36 NRD=0 NRS=0 M=1 R=2.8 SA=75000.2
+ SB=75000.6 A=0.063 P=1.14 MULT=1
MM1288 N_VGND_M1288_d N_S[1]_M1288_g N_A_1430_325#_M1241_s VNB NSHORT L=0.15
+ W=0.42 AD=0.1092 AS=0.0567 PD=1.36 PS=0.69 NRD=0 NRS=0 M=1 R=2.8 SA=75000.6
+ SB=75000.2 A=0.063 P=1.14 MULT=1
MM1107 N_A_1430_599#_M1008_d N_S[9]_M1107_g N_VGND_M1107_s VNB NSHORT L=0.15
+ W=0.42 AD=0.0567 AS=0.1092 PD=0.69 PS=1.36 NRD=0 NRS=0 M=1 R=2.8 SA=75000.6
+ SB=75000.2 A=0.063 P=1.14 MULT=1
MM1039 N_Z_M1039_d N_S[1]_M1039_g N_A_1693_66#_M1039_s VNB NSHORT L=0.15 W=0.52
+ AD=0.0702 AS=0.1352 PD=0.79 PS=1.56 NRD=0 NRS=0 M=1 R=3.46667 SA=75000.2
+ SB=75001.4 A=0.078 P=1.34 MULT=1
MM1027 N_Z_M1027_d N_S[9]_M1027_g N_A_1693_918#_M1027_s VNB NSHORT L=0.15 W=0.52
+ AD=0.0702 AS=0.1352 PD=0.79 PS=1.56 NRD=0 NRS=0 M=1 R=3.46667 SA=75000.2
+ SB=75001.4 A=0.078 P=1.34 MULT=1
MM1045 N_Z_M1039_d N_S[1]_M1045_g N_A_1693_66#_M1045_s VNB NSHORT L=0.15 W=0.52
+ AD=0.0702 AS=0.0702 PD=0.79 PS=0.79 NRD=0 NRS=0 M=1 R=3.46667 SA=75000.6
+ SB=75001 A=0.078 P=1.34 MULT=1
MM1032 N_Z_M1027_d N_S[9]_M1032_g N_A_1693_918#_M1032_s VNB NSHORT L=0.15 W=0.52
+ AD=0.0702 AS=0.0702 PD=0.79 PS=0.79 NRD=0 NRS=0 M=1 R=3.46667 SA=75000.6
+ SB=75001 A=0.078 P=1.34 MULT=1
MM1093 N_Z_M1093_d N_S[1]_M1093_g N_A_1693_66#_M1045_s VNB NSHORT L=0.15 W=0.52
+ AD=0.0702 AS=0.0702 PD=0.79 PS=0.79 NRD=0 NRS=0 M=1 R=3.46667 SA=75001
+ SB=75000.6 A=0.078 P=1.34 MULT=1
MM1096 N_Z_M1096_d N_S[9]_M1096_g N_A_1693_918#_M1032_s VNB NSHORT L=0.15 W=0.52
+ AD=0.0702 AS=0.0702 PD=0.79 PS=0.79 NRD=0 NRS=0 M=1 R=3.46667 SA=75001
+ SB=75000.6 A=0.078 P=1.34 MULT=1
MM1113 N_Z_M1093_d N_S[1]_M1113_g N_A_1693_66#_M1113_s VNB NSHORT L=0.15 W=0.52
+ AD=0.0702 AS=0.1352 PD=0.79 PS=1.56 NRD=0 NRS=0 M=1 R=3.46667 SA=75001.4
+ SB=75000.2 A=0.078 P=1.34 MULT=1
MM1259 N_Z_M1096_d N_S[9]_M1259_g N_A_1693_918#_M1259_s VNB NSHORT L=0.15 W=0.52
+ AD=0.0702 AS=0.1352 PD=0.79 PS=1.56 NRD=0 NRS=0 M=1 R=3.46667 SA=75001.4
+ SB=75000.2 A=0.078 P=1.34 MULT=1
MM1049 N_VGND_M1049_d N_D[1]_M1049_g N_A_1693_66#_M1049_s VNB NSHORT L=0.15
+ W=0.65 AD=0.169 AS=0.08775 PD=1.82 PS=0.92 NRD=0 NRS=0 M=1 R=4.33333
+ SA=75000.2 SB=75001.6 A=0.0975 P=1.6 MULT=1
MM1019 N_VGND_M1019_d N_D[9]_M1019_g N_A_1693_918#_M1019_s VNB NSHORT L=0.15
+ W=0.65 AD=0.169 AS=0.08775 PD=1.82 PS=0.92 NRD=0 NRS=0 M=1 R=4.33333
+ SA=75000.2 SB=75001.6 A=0.0975 P=1.6 MULT=1
MM1098 N_VGND_M1098_d N_D[1]_M1098_g N_A_1693_66#_M1049_s VNB NSHORT L=0.15
+ W=0.65 AD=0.12025 AS=0.08775 PD=1.02 PS=0.92 NRD=8.304 NRS=0 M=1 R=4.33333
+ SA=75000.6 SB=75001.2 A=0.0975 P=1.6 MULT=1
MM1111 N_VGND_M1111_d N_D[9]_M1111_g N_A_1693_918#_M1019_s VNB NSHORT L=0.15
+ W=0.65 AD=0.12025 AS=0.08775 PD=1.02 PS=0.92 NRD=8.304 NRS=0 M=1 R=4.33333
+ SA=75000.6 SB=75001.2 A=0.0975 P=1.6 MULT=1
MM1167 N_VGND_M1098_d N_D[1]_M1167_g N_A_1693_66#_M1167_s VNB NSHORT L=0.15
+ W=0.65 AD=0.12025 AS=0.08775 PD=1.02 PS=0.92 NRD=8.304 NRS=0 M=1 R=4.33333
+ SA=75001.1 SB=75000.7 A=0.0975 P=1.6 MULT=1
MM1178 N_VGND_M1111_d N_D[9]_M1178_g N_A_1693_918#_M1178_s VNB NSHORT L=0.15
+ W=0.65 AD=0.12025 AS=0.08775 PD=1.02 PS=0.92 NRD=8.304 NRS=0 M=1 R=4.33333
+ SA=75001.1 SB=75000.7 A=0.0975 P=1.6 MULT=1
MM1315 N_VGND_M1315_d N_D[1]_M1315_g N_A_1693_66#_M1167_s VNB NSHORT L=0.15
+ W=0.65 AD=0.2015 AS=0.08775 PD=1.92 PS=0.92 NRD=0 NRS=0 M=1 R=4.33333
+ SA=75001.5 SB=75000.2 A=0.0975 P=1.6 MULT=1
MM1276 N_VGND_M1276_d N_D[9]_M1276_g N_A_1693_918#_M1178_s VNB NSHORT L=0.15
+ W=0.65 AD=0.2015 AS=0.08775 PD=1.92 PS=0.92 NRD=0 NRS=0 M=1 R=4.33333
+ SA=75001.5 SB=75000.2 A=0.0975 P=1.6 MULT=1
MM1001 N_A_2695_47#_M1001_d N_D[2]_M1001_g N_VGND_M1001_s VNB NSHORT L=0.15
+ W=0.65 AD=0.08775 AS=0.2015 PD=0.92 PS=1.92 NRD=0 NRS=0 M=1 R=4.33333
+ SA=75000.2 SB=75001.5 A=0.0975 P=1.6 MULT=1
MM1033 N_VGND_M1033_d N_D[10]_M1033_g N_A_2695_911#_M1033_s VNB NSHORT L=0.15
+ W=0.65 AD=0.2015 AS=0.08775 PD=1.92 PS=0.92 NRD=0 NRS=0 M=1 R=4.33333
+ SA=75000.2 SB=75001.5 A=0.0975 P=1.6 MULT=1
MM1062 N_A_2695_47#_M1001_d N_D[2]_M1062_g N_VGND_M1062_s VNB NSHORT L=0.15
+ W=0.65 AD=0.08775 AS=0.12025 PD=0.92 PS=1.02 NRD=0 NRS=8.304 M=1 R=4.33333
+ SA=75000.7 SB=75001.1 A=0.0975 P=1.6 MULT=1
MM1143 N_VGND_M1143_d N_D[10]_M1143_g N_A_2695_911#_M1033_s VNB NSHORT L=0.15
+ W=0.65 AD=0.12025 AS=0.08775 PD=1.02 PS=0.92 NRD=8.304 NRS=0 M=1 R=4.33333
+ SA=75000.7 SB=75001.1 A=0.0975 P=1.6 MULT=1
MM1110 N_A_2695_47#_M1110_d N_D[2]_M1110_g N_VGND_M1062_s VNB NSHORT L=0.15
+ W=0.65 AD=0.08775 AS=0.12025 PD=0.92 PS=1.02 NRD=0 NRS=8.304 M=1 R=4.33333
+ SA=75001.2 SB=75000.6 A=0.0975 P=1.6 MULT=1
MM1195 N_VGND_M1143_d N_D[10]_M1195_g N_A_2695_911#_M1195_s VNB NSHORT L=0.15
+ W=0.65 AD=0.12025 AS=0.08775 PD=1.02 PS=0.92 NRD=8.304 NRS=0 M=1 R=4.33333
+ SA=75001.2 SB=75000.6 A=0.0975 P=1.6 MULT=1
MM1182 N_A_2695_47#_M1110_d N_D[2]_M1182_g N_VGND_M1182_s VNB NSHORT L=0.15
+ W=0.65 AD=0.08775 AS=0.169 PD=0.92 PS=1.82 NRD=0 NRS=0 M=1 R=4.33333
+ SA=75001.6 SB=75000.2 A=0.0975 P=1.6 MULT=1
MM1307 N_VGND_M1307_d N_D[10]_M1307_g N_A_2695_911#_M1195_s VNB NSHORT L=0.15
+ W=0.65 AD=0.169 AS=0.08775 PD=1.82 PS=0.92 NRD=0 NRS=0 M=1 R=4.33333
+ SA=75001.6 SB=75000.2 A=0.0975 P=1.6 MULT=1
MM1035 N_Z_M1035_d N_S[2]_M1035_g N_A_2695_47#_M1035_s VNB NSHORT L=0.15 W=0.52
+ AD=0.0702 AS=0.1352 PD=0.79 PS=1.56 NRD=0 NRS=0 M=1 R=3.46667 SA=75000.2
+ SB=75001.4 A=0.078 P=1.34 MULT=1
MM1010 N_A_2695_911#_M1010_d N_S[10]_M1010_g N_Z_M1010_s VNB NSHORT L=0.15
+ W=0.52 AD=0.1352 AS=0.0702 PD=1.56 PS=0.79 NRD=0 NRS=0 M=1 R=3.46667
+ SA=75000.2 SB=75001.4 A=0.078 P=1.34 MULT=1
MM1036 N_Z_M1035_d N_S[2]_M1036_g N_A_2695_47#_M1036_s VNB NSHORT L=0.15 W=0.52
+ AD=0.0702 AS=0.0702 PD=0.79 PS=0.79 NRD=0 NRS=0 M=1 R=3.46667 SA=75000.6
+ SB=75001 A=0.078 P=1.34 MULT=1
MM1214 N_A_2695_911#_M1214_d N_S[10]_M1214_g N_Z_M1010_s VNB NSHORT L=0.15
+ W=0.52 AD=0.0702 AS=0.0702 PD=0.79 PS=0.79 NRD=0 NRS=0 M=1 R=3.46667
+ SA=75000.6 SB=75001 A=0.078 P=1.34 MULT=1
MM1108 N_Z_M1108_d N_S[2]_M1108_g N_A_2695_47#_M1036_s VNB NSHORT L=0.15 W=0.52
+ AD=0.0702 AS=0.0702 PD=0.79 PS=0.79 NRD=0 NRS=0 M=1 R=3.46667 SA=75001
+ SB=75000.6 A=0.078 P=1.34 MULT=1
MM1263 N_A_2695_911#_M1214_d N_S[10]_M1263_g N_Z_M1263_s VNB NSHORT L=0.15
+ W=0.52 AD=0.0702 AS=0.0702 PD=0.79 PS=0.79 NRD=0 NRS=0 M=1 R=3.46667 SA=75001
+ SB=75000.6 A=0.078 P=1.34 MULT=1
MM1306 N_Z_M1108_d N_S[2]_M1306_g N_A_2695_47#_M1306_s VNB NSHORT L=0.15 W=0.52
+ AD=0.0702 AS=0.1352 PD=0.79 PS=1.56 NRD=0 NRS=0 M=1 R=3.46667 SA=75001.4
+ SB=75000.2 A=0.078 P=1.34 MULT=1
MM1268 N_A_2695_911#_M1268_d N_S[10]_M1268_g N_Z_M1263_s VNB NSHORT L=0.15
+ W=0.52 AD=0.1352 AS=0.0702 PD=1.56 PS=0.79 NRD=0 NRS=0 M=1 R=3.46667
+ SA=75001.4 SB=75000.2 A=0.078 P=1.34 MULT=1
MM1222 N_VGND_M1222_d N_S[2]_M1222_g N_A_3135_265#_M1222_s VNB NSHORT L=0.15
+ W=0.42 AD=0.1092 AS=0.0567 PD=1.36 PS=0.69 NRD=0 NRS=0 M=1 R=2.8 SA=75000.2
+ SB=75000.6 A=0.063 P=1.14 MULT=1
MM1043 N_A_3135_793#_M1043_d N_S[10]_M1043_g N_VGND_M1043_s VNB NSHORT L=0.15
+ W=0.42 AD=0.0567 AS=0.1092 PD=0.69 PS=1.36 NRD=0 NRS=0 M=1 R=2.8 SA=75000.2
+ SB=75000.6 A=0.063 P=1.14 MULT=1
MM1239 N_VGND_M1239_d N_S[2]_M1239_g N_A_3135_265#_M1222_s VNB NSHORT L=0.15
+ W=0.42 AD=0.1092 AS=0.0567 PD=1.36 PS=0.69 NRD=0 NRS=0 M=1 R=2.8 SA=75000.6
+ SB=75000.2 A=0.063 P=1.14 MULT=1
MM1215 N_A_3135_793#_M1043_d N_S[10]_M1215_g N_VGND_M1215_s VNB NSHORT L=0.15
+ W=0.42 AD=0.0567 AS=0.1092 PD=0.69 PS=1.36 NRD=0 NRS=0 M=1 R=2.8 SA=75000.6
+ SB=75000.2 A=0.063 P=1.14 MULT=1
MM1234 N_VGND_M1234_d N_S[3]_M1234_g N_A_4006_325#_M1234_s VNB NSHORT L=0.15
+ W=0.42 AD=0.1092 AS=0.0567 PD=1.36 PS=0.69 NRD=0 NRS=0 M=1 R=2.8 SA=75000.2
+ SB=75000.6 A=0.063 P=1.14 MULT=1
MM1054 N_VGND_M1054_d N_S[11]_M1054_g N_A_4006_599#_M1054_s VNB NSHORT L=0.15
+ W=0.42 AD=0.1092 AS=0.0567 PD=1.36 PS=0.69 NRD=0 NRS=0 M=1 R=2.8 SA=75000.2
+ SB=75000.6 A=0.063 P=1.14 MULT=1
MM1291 N_VGND_M1291_d N_S[3]_M1291_g N_A_4006_325#_M1234_s VNB NSHORT L=0.15
+ W=0.42 AD=0.1092 AS=0.0567 PD=1.36 PS=0.69 NRD=0 NRS=0 M=1 R=2.8 SA=75000.6
+ SB=75000.2 A=0.063 P=1.14 MULT=1
MM1072 N_VGND_M1072_d N_S[11]_M1072_g N_A_4006_599#_M1054_s VNB NSHORT L=0.15
+ W=0.42 AD=0.1092 AS=0.0567 PD=1.36 PS=0.69 NRD=0 NRS=0 M=1 R=2.8 SA=75000.6
+ SB=75000.2 A=0.063 P=1.14 MULT=1
MM1030 N_A_4269_66#_M1030_d N_S[3]_M1030_g N_Z_M1030_s VNB NSHORT L=0.15 W=0.52
+ AD=0.1352 AS=0.0702 PD=1.56 PS=0.79 NRD=0 NRS=0 M=1 R=3.46667 SA=75000.2
+ SB=75001.4 A=0.078 P=1.34 MULT=1
MM1047 N_A_4269_918#_M1047_d N_S[11]_M1047_g N_Z_M1047_s VNB NSHORT L=0.15
+ W=0.52 AD=0.1352 AS=0.0702 PD=1.56 PS=0.79 NRD=0 NRS=0 M=1 R=3.46667
+ SA=75000.2 SB=75001.4 A=0.078 P=1.34 MULT=1
MM1031 N_A_4269_66#_M1031_d N_S[3]_M1031_g N_Z_M1030_s VNB NSHORT L=0.15 W=0.52
+ AD=0.0702 AS=0.0702 PD=0.79 PS=0.79 NRD=0 NRS=0 M=1 R=3.46667 SA=75000.6
+ SB=75001 A=0.078 P=1.34 MULT=1
MM1160 N_A_4269_918#_M1160_d N_S[11]_M1160_g N_Z_M1047_s VNB NSHORT L=0.15
+ W=0.52 AD=0.0702 AS=0.0702 PD=0.79 PS=0.79 NRD=0 NRS=0 M=1 R=3.46667
+ SA=75000.6 SB=75001 A=0.078 P=1.34 MULT=1
MM1059 N_A_4269_66#_M1031_d N_S[3]_M1059_g N_Z_M1059_s VNB NSHORT L=0.15 W=0.52
+ AD=0.0702 AS=0.0702 PD=0.79 PS=0.79 NRD=0 NRS=0 M=1 R=3.46667 SA=75001
+ SB=75000.6 A=0.078 P=1.34 MULT=1
MM1316 N_A_4269_918#_M1160_d N_S[11]_M1316_g N_Z_M1316_s VNB NSHORT L=0.15
+ W=0.52 AD=0.0702 AS=0.0702 PD=0.79 PS=0.79 NRD=0 NRS=0 M=1 R=3.46667 SA=75001
+ SB=75000.6 A=0.078 P=1.34 MULT=1
MM1106 N_A_4269_66#_M1106_d N_S[3]_M1106_g N_Z_M1059_s VNB NSHORT L=0.15 W=0.52
+ AD=0.1352 AS=0.0702 PD=1.56 PS=0.79 NRD=0 NRS=0 M=1 R=3.46667 SA=75001.4
+ SB=75000.2 A=0.078 P=1.34 MULT=1
MM1318 N_A_4269_918#_M1318_d N_S[11]_M1318_g N_Z_M1316_s VNB NSHORT L=0.15
+ W=0.52 AD=0.1352 AS=0.0702 PD=1.56 PS=0.79 NRD=0 NRS=0 M=1 R=3.46667
+ SA=75001.4 SB=75000.2 A=0.078 P=1.34 MULT=1
MM1041 N_VGND_M1041_d N_D[3]_M1041_g N_A_4269_66#_M1041_s VNB NSHORT L=0.15
+ W=0.65 AD=0.169 AS=0.08775 PD=1.82 PS=0.92 NRD=0 NRS=0 M=1 R=4.33333
+ SA=75000.2 SB=75001.6 A=0.0975 P=1.6 MULT=1
MM1245 N_A_4269_918#_M1245_d N_D[11]_M1245_g N_VGND_M1245_s VNB NSHORT L=0.15
+ W=0.65 AD=0.08775 AS=0.169 PD=0.92 PS=1.82 NRD=0 NRS=0 M=1 R=4.33333
+ SA=75000.2 SB=75001.6 A=0.0975 P=1.6 MULT=1
MM1100 N_VGND_M1100_d N_D[3]_M1100_g N_A_4269_66#_M1041_s VNB NSHORT L=0.15
+ W=0.65 AD=0.12025 AS=0.08775 PD=1.02 PS=0.92 NRD=8.304 NRS=0 M=1 R=4.33333
+ SA=75000.6 SB=75001.2 A=0.0975 P=1.6 MULT=1
MM1296 N_A_4269_918#_M1245_d N_D[11]_M1296_g N_VGND_M1296_s VNB NSHORT L=0.15
+ W=0.65 AD=0.08775 AS=0.12025 PD=0.92 PS=1.02 NRD=0 NRS=8.304 M=1 R=4.33333
+ SA=75000.6 SB=75001.2 A=0.0975 P=1.6 MULT=1
MM1135 N_VGND_M1100_d N_D[3]_M1135_g N_A_4269_66#_M1135_s VNB NSHORT L=0.15
+ W=0.65 AD=0.12025 AS=0.08775 PD=1.02 PS=0.92 NRD=8.304 NRS=0 M=1 R=4.33333
+ SA=75001.1 SB=75000.7 A=0.0975 P=1.6 MULT=1
MM1310 N_A_4269_918#_M1310_d N_D[11]_M1310_g N_VGND_M1296_s VNB NSHORT L=0.15
+ W=0.65 AD=0.08775 AS=0.12025 PD=0.92 PS=1.02 NRD=0 NRS=8.304 M=1 R=4.33333
+ SA=75001.1 SB=75000.7 A=0.0975 P=1.6 MULT=1
MM1193 N_VGND_M1193_d N_D[3]_M1193_g N_A_4269_66#_M1135_s VNB NSHORT L=0.15
+ W=0.65 AD=0.2015 AS=0.08775 PD=1.92 PS=0.92 NRD=0 NRS=0 M=1 R=4.33333
+ SA=75001.5 SB=75000.2 A=0.0975 P=1.6 MULT=1
MM1311 N_A_4269_918#_M1310_d N_D[11]_M1311_g N_VGND_M1311_s VNB NSHORT L=0.15
+ W=0.65 AD=0.08775 AS=0.2015 PD=0.92 PS=1.92 NRD=0 NRS=0 M=1 R=4.33333
+ SA=75001.5 SB=75000.2 A=0.0975 P=1.6 MULT=1
MM1021 N_VGND_M1021_d N_D[4]_M1021_g N_A_5363_47#_M1021_s VNB NSHORT L=0.15
+ W=0.65 AD=0.2015 AS=0.08775 PD=1.92 PS=0.92 NRD=0 NRS=0 M=1 R=4.33333
+ SA=75000.2 SB=75001.5 A=0.0975 P=1.6 MULT=1
MM1012 N_VGND_M1012_d N_D[12]_M1012_g N_A_5363_911#_M1012_s VNB NSHORT L=0.15
+ W=0.65 AD=0.2015 AS=0.08775 PD=1.92 PS=0.92 NRD=0 NRS=0 M=1 R=4.33333
+ SA=75000.2 SB=75001.5 A=0.0975 P=1.6 MULT=1
MM1177 N_VGND_M1177_d N_D[4]_M1177_g N_A_5363_47#_M1021_s VNB NSHORT L=0.15
+ W=0.65 AD=0.12025 AS=0.08775 PD=1.02 PS=0.92 NRD=8.304 NRS=0 M=1 R=4.33333
+ SA=75000.7 SB=75001.1 A=0.0975 P=1.6 MULT=1
MM1128 N_VGND_M1128_d N_D[12]_M1128_g N_A_5363_911#_M1012_s VNB NSHORT L=0.15
+ W=0.65 AD=0.12025 AS=0.08775 PD=1.02 PS=0.92 NRD=8.304 NRS=0 M=1 R=4.33333
+ SA=75000.7 SB=75001.1 A=0.0975 P=1.6 MULT=1
MM1232 N_VGND_M1177_d N_D[4]_M1232_g N_A_5363_47#_M1232_s VNB NSHORT L=0.15
+ W=0.65 AD=0.12025 AS=0.08775 PD=1.02 PS=0.92 NRD=8.304 NRS=0 M=1 R=4.33333
+ SA=75001.2 SB=75000.6 A=0.0975 P=1.6 MULT=1
MM1187 N_VGND_M1128_d N_D[12]_M1187_g N_A_5363_911#_M1187_s VNB NSHORT L=0.15
+ W=0.65 AD=0.12025 AS=0.08775 PD=1.02 PS=0.92 NRD=8.304 NRS=0 M=1 R=4.33333
+ SA=75001.2 SB=75000.6 A=0.0975 P=1.6 MULT=1
MM1275 N_VGND_M1275_d N_D[4]_M1275_g N_A_5363_47#_M1232_s VNB NSHORT L=0.15
+ W=0.65 AD=0.169 AS=0.08775 PD=1.82 PS=0.92 NRD=0 NRS=0 M=1 R=4.33333
+ SA=75001.6 SB=75000.2 A=0.0975 P=1.6 MULT=1
MM1267 N_VGND_M1267_d N_D[12]_M1267_g N_A_5363_911#_M1187_s VNB NSHORT L=0.15
+ W=0.65 AD=0.169 AS=0.08775 PD=1.82 PS=0.92 NRD=0 NRS=0 M=1 R=4.33333
+ SA=75001.6 SB=75000.2 A=0.0975 P=1.6 MULT=1
MM1154 N_Z_M1154_d N_S[4]_M1154_g N_A_5363_47#_M1154_s VNB NSHORT L=0.15 W=0.52
+ AD=0.0702 AS=0.1352 PD=0.79 PS=1.56 NRD=0 NRS=0 M=1 R=3.46667 SA=75000.2
+ SB=75001.4 A=0.078 P=1.34 MULT=1
MM1044 N_A_5363_911#_M1044_d N_S[12]_M1044_g N_Z_M1044_s VNB NSHORT L=0.15
+ W=0.52 AD=0.1352 AS=0.0702 PD=1.56 PS=0.79 NRD=0 NRS=0 M=1 R=3.46667
+ SA=75000.2 SB=75001.4 A=0.078 P=1.34 MULT=1
MM1191 N_Z_M1154_d N_S[4]_M1191_g N_A_5363_47#_M1191_s VNB NSHORT L=0.15 W=0.52
+ AD=0.0702 AS=0.0702 PD=0.79 PS=0.79 NRD=0 NRS=0 M=1 R=3.46667 SA=75000.6
+ SB=75001 A=0.078 P=1.34 MULT=1
MM1091 N_A_5363_911#_M1091_d N_S[12]_M1091_g N_Z_M1044_s VNB NSHORT L=0.15
+ W=0.52 AD=0.0702 AS=0.0702 PD=0.79 PS=0.79 NRD=0 NRS=0 M=1 R=3.46667
+ SA=75000.6 SB=75001 A=0.078 P=1.34 MULT=1
MM1205 N_Z_M1205_d N_S[4]_M1205_g N_A_5363_47#_M1191_s VNB NSHORT L=0.15 W=0.52
+ AD=0.0702 AS=0.0702 PD=0.79 PS=0.79 NRD=0 NRS=0 M=1 R=3.46667 SA=75001
+ SB=75000.6 A=0.078 P=1.34 MULT=1
MM1218 N_A_5363_911#_M1091_d N_S[12]_M1218_g N_Z_M1218_s VNB NSHORT L=0.15
+ W=0.52 AD=0.0702 AS=0.0702 PD=0.79 PS=0.79 NRD=0 NRS=0 M=1 R=3.46667 SA=75001
+ SB=75000.6 A=0.078 P=1.34 MULT=1
MM1213 N_Z_M1205_d N_S[4]_M1213_g N_A_5363_47#_M1213_s VNB NSHORT L=0.15 W=0.52
+ AD=0.0702 AS=0.1352 PD=0.79 PS=1.56 NRD=0 NRS=0 M=1 R=3.46667 SA=75001.4
+ SB=75000.2 A=0.078 P=1.34 MULT=1
MM1312 N_A_5363_911#_M1312_d N_S[12]_M1312_g N_Z_M1218_s VNB NSHORT L=0.15
+ W=0.52 AD=0.1352 AS=0.0702 PD=1.56 PS=0.79 NRD=0 NRS=0 M=1 R=3.46667
+ SA=75001.4 SB=75000.2 A=0.078 P=1.34 MULT=1
MM1037 N_VGND_M1037_d N_S[4]_M1037_g N_A_5803_265#_M1037_s VNB NSHORT L=0.15
+ W=0.42 AD=0.1092 AS=0.0567 PD=1.36 PS=0.69 NRD=0 NRS=0 M=1 R=2.8 SA=75000.2
+ SB=75000.6 A=0.063 P=1.14 MULT=1
MM1188 N_A_5803_793#_M1188_d N_S[12]_M1188_g N_VGND_M1188_s VNB NSHORT L=0.15
+ W=0.42 AD=0.0567 AS=0.1092 PD=0.69 PS=1.36 NRD=0 NRS=0 M=1 R=2.8 SA=75000.2
+ SB=75000.6 A=0.063 P=1.14 MULT=1
MM1086 N_VGND_M1086_d N_S[4]_M1086_g N_A_5803_265#_M1037_s VNB NSHORT L=0.15
+ W=0.42 AD=0.1092 AS=0.0567 PD=1.36 PS=0.69 NRD=0 NRS=0 M=1 R=2.8 SA=75000.6
+ SB=75000.2 A=0.063 P=1.14 MULT=1
MM1283 N_A_5803_793#_M1188_d N_S[12]_M1283_g N_VGND_M1283_s VNB NSHORT L=0.15
+ W=0.42 AD=0.0567 AS=0.1092 PD=0.69 PS=1.36 NRD=0 NRS=0 M=1 R=2.8 SA=75000.6
+ SB=75000.2 A=0.063 P=1.14 MULT=1
MM1126 N_VGND_M1126_d N_S[5]_M1126_g N_A_6674_325#_M1126_s VNB NSHORT L=0.15
+ W=0.42 AD=0.1092 AS=0.0567 PD=1.36 PS=0.69 NRD=0 NRS=0 M=1 R=2.8 SA=75000.2
+ SB=75000.6 A=0.063 P=1.14 MULT=1
MM1060 N_VGND_M1060_d N_S[13]_M1060_g N_A_6674_599#_M1060_s VNB NSHORT L=0.15
+ W=0.42 AD=0.1092 AS=0.0567 PD=1.36 PS=0.69 NRD=0 NRS=0 M=1 R=2.8 SA=75000.2
+ SB=75000.6 A=0.063 P=1.14 MULT=1
MM1152 N_VGND_M1152_d N_S[5]_M1152_g N_A_6674_325#_M1126_s VNB NSHORT L=0.15
+ W=0.42 AD=0.1092 AS=0.0567 PD=1.36 PS=0.69 NRD=0 NRS=0 M=1 R=2.8 SA=75000.6
+ SB=75000.2 A=0.063 P=1.14 MULT=1
MM1211 N_VGND_M1211_d N_S[13]_M1211_g N_A_6674_599#_M1060_s VNB NSHORT L=0.15
+ W=0.42 AD=0.1092 AS=0.0567 PD=1.36 PS=0.69 NRD=0 NRS=0 M=1 R=2.8 SA=75000.6
+ SB=75000.2 A=0.063 P=1.14 MULT=1
MM1175 N_A_6937_66#_M1175_d N_S[5]_M1175_g N_Z_M1175_s VNB NSHORT L=0.15 W=0.52
+ AD=0.1352 AS=0.0702 PD=1.56 PS=0.79 NRD=0 NRS=0 M=1 R=3.46667 SA=75000.2
+ SB=75001.4 A=0.078 P=1.34 MULT=1
MM1149 N_A_6937_918#_M1149_d N_S[13]_M1149_g N_Z_M1149_s VNB NSHORT L=0.15
+ W=0.52 AD=0.1352 AS=0.0702 PD=1.56 PS=0.79 NRD=0 NRS=0 M=1 R=3.46667
+ SA=75000.2 SB=75001.4 A=0.078 P=1.34 MULT=1
MM1210 N_A_6937_66#_M1210_d N_S[5]_M1210_g N_Z_M1175_s VNB NSHORT L=0.15 W=0.52
+ AD=0.0702 AS=0.0702 PD=0.79 PS=0.79 NRD=0 NRS=0 M=1 R=3.46667 SA=75000.6
+ SB=75001 A=0.078 P=1.34 MULT=1
MM1226 N_A_6937_918#_M1226_d N_S[13]_M1226_g N_Z_M1149_s VNB NSHORT L=0.15
+ W=0.52 AD=0.0702 AS=0.0702 PD=0.79 PS=0.79 NRD=0 NRS=0 M=1 R=3.46667
+ SA=75000.6 SB=75001 A=0.078 P=1.34 MULT=1
MM1220 N_A_6937_66#_M1210_d N_S[5]_M1220_g N_Z_M1220_s VNB NSHORT L=0.15 W=0.52
+ AD=0.0702 AS=0.0702 PD=0.79 PS=0.79 NRD=0 NRS=0 M=1 R=3.46667 SA=75001
+ SB=75000.6 A=0.078 P=1.34 MULT=1
MM1242 N_A_6937_918#_M1226_d N_S[13]_M1242_g N_Z_M1242_s VNB NSHORT L=0.15
+ W=0.52 AD=0.0702 AS=0.0702 PD=0.79 PS=0.79 NRD=0 NRS=0 M=1 R=3.46667 SA=75001
+ SB=75000.6 A=0.078 P=1.34 MULT=1
MM1228 N_A_6937_66#_M1228_d N_S[5]_M1228_g N_Z_M1220_s VNB NSHORT L=0.15 W=0.52
+ AD=0.1352 AS=0.0702 PD=1.56 PS=0.79 NRD=0 NRS=0 M=1 R=3.46667 SA=75001.4
+ SB=75000.2 A=0.078 P=1.34 MULT=1
MM1290 N_A_6937_918#_M1290_d N_S[13]_M1290_g N_Z_M1242_s VNB NSHORT L=0.15
+ W=0.52 AD=0.1352 AS=0.0702 PD=1.56 PS=0.79 NRD=0 NRS=0 M=1 R=3.46667
+ SA=75001.4 SB=75000.2 A=0.078 P=1.34 MULT=1
MM1029 N_VGND_M1029_d N_D[5]_M1029_g N_A_6937_66#_M1029_s VNB NSHORT L=0.15
+ W=0.65 AD=0.169 AS=0.08775 PD=1.82 PS=0.92 NRD=0 NRS=0 M=1 R=4.33333
+ SA=75000.2 SB=75001.6 A=0.0975 P=1.6 MULT=1
MM1132 N_VGND_M1132_d N_D[13]_M1132_g N_A_6937_918#_M1132_s VNB NSHORT L=0.15
+ W=0.65 AD=0.169 AS=0.08775 PD=1.82 PS=0.92 NRD=0 NRS=0 M=1 R=4.33333
+ SA=75000.2 SB=75001.6 A=0.0975 P=1.6 MULT=1
MM1057 N_VGND_M1057_d N_D[5]_M1057_g N_A_6937_66#_M1029_s VNB NSHORT L=0.15
+ W=0.65 AD=0.12025 AS=0.08775 PD=1.02 PS=0.92 NRD=8.304 NRS=0 M=1 R=4.33333
+ SA=75000.6 SB=75001.2 A=0.0975 P=1.6 MULT=1
MM1136 N_VGND_M1136_d N_D[13]_M1136_g N_A_6937_918#_M1132_s VNB NSHORT L=0.15
+ W=0.65 AD=0.12025 AS=0.08775 PD=1.02 PS=0.92 NRD=8.304 NRS=0 M=1 R=4.33333
+ SA=75000.6 SB=75001.2 A=0.0975 P=1.6 MULT=1
MM1247 N_VGND_M1057_d N_D[5]_M1247_g N_A_6937_66#_M1247_s VNB NSHORT L=0.15
+ W=0.65 AD=0.12025 AS=0.08775 PD=1.02 PS=0.92 NRD=8.304 NRS=0 M=1 R=4.33333
+ SA=75001.1 SB=75000.7 A=0.0975 P=1.6 MULT=1
MM1274 N_VGND_M1136_d N_D[13]_M1274_g N_A_6937_918#_M1274_s VNB NSHORT L=0.15
+ W=0.65 AD=0.12025 AS=0.08775 PD=1.02 PS=0.92 NRD=8.304 NRS=0 M=1 R=4.33333
+ SA=75001.1 SB=75000.7 A=0.0975 P=1.6 MULT=1
MM1262 N_VGND_M1262_d N_D[5]_M1262_g N_A_6937_66#_M1247_s VNB NSHORT L=0.15
+ W=0.65 AD=0.2015 AS=0.08775 PD=1.92 PS=0.92 NRD=0 NRS=0 M=1 R=4.33333
+ SA=75001.5 SB=75000.2 A=0.0975 P=1.6 MULT=1
MM1298 N_VGND_M1298_d N_D[13]_M1298_g N_A_6937_918#_M1274_s VNB NSHORT L=0.15
+ W=0.65 AD=0.2015 AS=0.08775 PD=1.92 PS=0.92 NRD=0 NRS=0 M=1 R=4.33333
+ SA=75001.5 SB=75000.2 A=0.0975 P=1.6 MULT=1
MM1069 N_A_7939_47#_M1069_d N_D[6]_M1069_g N_VGND_M1069_s VNB NSHORT L=0.15
+ W=0.65 AD=0.08775 AS=0.2015 PD=0.92 PS=1.92 NRD=0 NRS=0 M=1 R=4.33333
+ SA=75000.2 SB=75001.5 A=0.0975 P=1.6 MULT=1
MM1004 N_A_7939_911#_M1004_d N_D[14]_M1004_g N_VGND_M1004_s VNB NSHORT L=0.15
+ W=0.65 AD=0.08775 AS=0.2015 PD=0.92 PS=1.92 NRD=0 NRS=0 M=1 R=4.33333
+ SA=75000.2 SB=75001.5 A=0.0975 P=1.6 MULT=1
MM1122 N_A_7939_47#_M1069_d N_D[6]_M1122_g N_VGND_M1122_s VNB NSHORT L=0.15
+ W=0.65 AD=0.08775 AS=0.12025 PD=0.92 PS=1.02 NRD=0 NRS=8.304 M=1 R=4.33333
+ SA=75000.7 SB=75001.1 A=0.0975 P=1.6 MULT=1
MM1179 N_A_7939_911#_M1004_d N_D[14]_M1179_g N_VGND_M1179_s VNB NSHORT L=0.15
+ W=0.65 AD=0.08775 AS=0.12025 PD=0.92 PS=1.02 NRD=0 NRS=8.304 M=1 R=4.33333
+ SA=75000.7 SB=75001.1 A=0.0975 P=1.6 MULT=1
MM1147 N_A_7939_47#_M1147_d N_D[6]_M1147_g N_VGND_M1122_s VNB NSHORT L=0.15
+ W=0.65 AD=0.08775 AS=0.12025 PD=0.92 PS=1.02 NRD=0 NRS=8.304 M=1 R=4.33333
+ SA=75001.2 SB=75000.6 A=0.0975 P=1.6 MULT=1
MM1189 N_A_7939_911#_M1189_d N_D[14]_M1189_g N_VGND_M1179_s VNB NSHORT L=0.15
+ W=0.65 AD=0.08775 AS=0.12025 PD=0.92 PS=1.02 NRD=0 NRS=8.304 M=1 R=4.33333
+ SA=75001.2 SB=75000.6 A=0.0975 P=1.6 MULT=1
MM1258 N_A_7939_47#_M1147_d N_D[6]_M1258_g N_VGND_M1258_s VNB NSHORT L=0.15
+ W=0.65 AD=0.08775 AS=0.169 PD=0.92 PS=1.82 NRD=0 NRS=0 M=1 R=4.33333
+ SA=75001.6 SB=75000.2 A=0.0975 P=1.6 MULT=1
MM1305 N_A_7939_911#_M1189_d N_D[14]_M1305_g N_VGND_M1305_s VNB NSHORT L=0.15
+ W=0.65 AD=0.08775 AS=0.169 PD=0.92 PS=1.82 NRD=0 NRS=0 M=1 R=4.33333
+ SA=75001.6 SB=75000.2 A=0.0975 P=1.6 MULT=1
MM1202 N_A_7939_47#_M1202_d N_S[6]_M1202_g N_Z_M1202_s VNB NSHORT L=0.15 W=0.52
+ AD=0.1352 AS=0.0702 PD=1.56 PS=0.79 NRD=0 NRS=0 M=1 R=3.46667 SA=75000.2
+ SB=75001.4 A=0.078 P=1.34 MULT=1
MM1005 N_A_7939_911#_M1005_d N_S[14]_M1005_g N_Z_M1005_s VNB NSHORT L=0.15
+ W=0.52 AD=0.1352 AS=0.0702 PD=1.56 PS=0.79 NRD=0 NRS=0 M=1 R=3.46667
+ SA=75000.2 SB=75001.4 A=0.078 P=1.34 MULT=1
MM1212 N_A_7939_47#_M1212_d N_S[6]_M1212_g N_Z_M1202_s VNB NSHORT L=0.15 W=0.52
+ AD=0.0702 AS=0.0702 PD=0.79 PS=0.79 NRD=0 NRS=0 M=1 R=3.46667 SA=75000.6
+ SB=75001 A=0.078 P=1.34 MULT=1
MM1064 N_A_7939_911#_M1064_d N_S[14]_M1064_g N_Z_M1005_s VNB NSHORT L=0.15
+ W=0.52 AD=0.0702 AS=0.0702 PD=0.79 PS=0.79 NRD=0 NRS=0 M=1 R=3.46667
+ SA=75000.6 SB=75001 A=0.078 P=1.34 MULT=1
MM1244 N_A_7939_47#_M1212_d N_S[6]_M1244_g N_Z_M1244_s VNB NSHORT L=0.15 W=0.52
+ AD=0.0702 AS=0.0702 PD=0.79 PS=0.79 NRD=0 NRS=0 M=1 R=3.46667 SA=75001
+ SB=75000.6 A=0.078 P=1.34 MULT=1
MM1162 N_A_7939_911#_M1064_d N_S[14]_M1162_g N_Z_M1162_s VNB NSHORT L=0.15
+ W=0.52 AD=0.0702 AS=0.0702 PD=0.79 PS=0.79 NRD=0 NRS=0 M=1 R=3.46667 SA=75001
+ SB=75000.6 A=0.078 P=1.34 MULT=1
MM1254 N_A_7939_47#_M1254_d N_S[6]_M1254_g N_Z_M1244_s VNB NSHORT L=0.15 W=0.52
+ AD=0.1352 AS=0.0702 PD=1.56 PS=0.79 NRD=0 NRS=0 M=1 R=3.46667 SA=75001.4
+ SB=75000.2 A=0.078 P=1.34 MULT=1
MM1230 N_A_7939_911#_M1230_d N_S[14]_M1230_g N_Z_M1162_s VNB NSHORT L=0.15
+ W=0.52 AD=0.1352 AS=0.0702 PD=1.56 PS=0.79 NRD=0 NRS=0 M=1 R=3.46667
+ SA=75001.4 SB=75000.2 A=0.078 P=1.34 MULT=1
MM1009 N_A_8379_265#_M1009_d N_S[6]_M1009_g N_VGND_M1009_s VNB NSHORT L=0.15
+ W=0.42 AD=0.0567 AS=0.1092 PD=0.69 PS=1.36 NRD=0 NRS=0 M=1 R=2.8 SA=75000.2
+ SB=75000.6 A=0.063 P=1.14 MULT=1
MM1028 N_A_8379_793#_M1028_d N_S[14]_M1028_g N_VGND_M1028_s VNB NSHORT L=0.15
+ W=0.42 AD=0.0567 AS=0.1092 PD=0.69 PS=1.36 NRD=0 NRS=0 M=1 R=2.8 SA=75000.2
+ SB=75000.6 A=0.063 P=1.14 MULT=1
MM1075 N_A_8379_265#_M1009_d N_S[6]_M1075_g N_VGND_M1075_s VNB NSHORT L=0.15
+ W=0.42 AD=0.0567 AS=0.1092 PD=0.69 PS=1.36 NRD=0 NRS=0 M=1 R=2.8 SA=75000.6
+ SB=75000.2 A=0.063 P=1.14 MULT=1
MM1097 N_A_8379_793#_M1028_d N_S[14]_M1097_g N_VGND_M1097_s VNB NSHORT L=0.15
+ W=0.42 AD=0.0567 AS=0.1092 PD=0.69 PS=1.36 NRD=0 NRS=0 M=1 R=2.8 SA=75000.6
+ SB=75000.2 A=0.063 P=1.14 MULT=1
MM1141 N_A_9250_325#_M1141_d N_S[7]_M1141_g N_VGND_M1141_s VNB NSHORT L=0.15
+ W=0.42 AD=0.0567 AS=0.1092 PD=0.69 PS=1.36 NRD=0 NRS=0 M=1 R=2.8 SA=75000.2
+ SB=75000.6 A=0.063 P=1.14 MULT=1
MM1174 N_A_9250_599#_M1174_d N_S[15]_M1174_g N_VGND_M1174_s VNB NSHORT L=0.15
+ W=0.42 AD=0.0567 AS=0.1092 PD=0.69 PS=1.36 NRD=0 NRS=0 M=1 R=2.8 SA=75000.2
+ SB=75000.6 A=0.063 P=1.14 MULT=1
MM1198 N_A_9250_325#_M1141_d N_S[7]_M1198_g N_VGND_M1198_s VNB NSHORT L=0.15
+ W=0.42 AD=0.0567 AS=0.1092 PD=0.69 PS=1.36 NRD=0 NRS=0 M=1 R=2.8 SA=75000.6
+ SB=75000.2 A=0.063 P=1.14 MULT=1
MM1223 N_A_9250_599#_M1174_d N_S[15]_M1223_g N_VGND_M1223_s VNB NSHORT L=0.15
+ W=0.42 AD=0.0567 AS=0.1092 PD=0.69 PS=1.36 NRD=0 NRS=0 M=1 R=2.8 SA=75000.6
+ SB=75000.2 A=0.063 P=1.14 MULT=1
MM1003 N_A_9513_66#_M1003_d N_S[7]_M1003_g N_Z_M1003_s VNB NSHORT L=0.15 W=0.52
+ AD=0.1352 AS=0.0702 PD=1.56 PS=0.79 NRD=0 NRS=0 M=1 R=3.46667 SA=75000.2
+ SB=75001.4 A=0.078 P=1.34 MULT=1
MM1104 N_Z_M1104_d N_S[15]_M1104_g N_A_9513_918#_M1104_s VNB NSHORT L=0.15
+ W=0.52 AD=0.0702 AS=0.1352 PD=0.79 PS=1.56 NRD=0 NRS=0 M=1 R=3.46667
+ SA=75000.2 SB=75001.4 A=0.078 P=1.34 MULT=1
MM1209 N_A_9513_66#_M1209_d N_S[7]_M1209_g N_Z_M1003_s VNB NSHORT L=0.15 W=0.52
+ AD=0.0702 AS=0.0702 PD=0.79 PS=0.79 NRD=0 NRS=0 M=1 R=3.46667 SA=75000.6
+ SB=75001 A=0.078 P=1.34 MULT=1
MM1169 N_Z_M1104_d N_S[15]_M1169_g N_A_9513_918#_M1169_s VNB NSHORT L=0.15
+ W=0.52 AD=0.0702 AS=0.0702 PD=0.79 PS=0.79 NRD=0 NRS=0 M=1 R=3.46667
+ SA=75000.6 SB=75001 A=0.078 P=1.34 MULT=1
MM1253 N_A_9513_66#_M1209_d N_S[7]_M1253_g N_Z_M1253_s VNB NSHORT L=0.15 W=0.52
+ AD=0.0702 AS=0.0702 PD=0.79 PS=0.79 NRD=0 NRS=0 M=1 R=3.46667 SA=75001
+ SB=75000.6 A=0.078 P=1.34 MULT=1
MM1197 N_Z_M1197_d N_S[15]_M1197_g N_A_9513_918#_M1169_s VNB NSHORT L=0.15
+ W=0.52 AD=0.0702 AS=0.0702 PD=0.79 PS=0.79 NRD=0 NRS=0 M=1 R=3.46667 SA=75001
+ SB=75000.6 A=0.078 P=1.34 MULT=1
MM1272 N_A_9513_66#_M1272_d N_S[7]_M1272_g N_Z_M1253_s VNB NSHORT L=0.15 W=0.52
+ AD=0.1352 AS=0.0702 PD=1.56 PS=0.79 NRD=0 NRS=0 M=1 R=3.46667 SA=75001.4
+ SB=75000.2 A=0.078 P=1.34 MULT=1