* File: sky130_fd_sc_hdll__muxb16to1_1.pex.spice
* Created: Thu Aug 27 19:11:23 2020
* Program "Calibre xRC"
* Version "v2018.4_34.26"
* Nominal Temperature: 27C
* Circuit Temperature: 27C
* 
.subckt PM_SKY130_FD_SC_HDLL__MUXB16TO1_1%D[0] 1 3 4 6 8 13 15
c29 4 0 5.33021e-20 $X=0.495 $Y=1.41
r30 15 18 2.25478 $w=2.28e-07 $l=4.5e-08 $layer=LI1_cond $X=0.69 $Y=0.51
+ $X2=0.645 $Y2=0.51
r31 10 13 6.18905 $w=2.68e-07 $l=1.45e-07 $layer=LI1_cond $X=0.5 $Y=1.19
+ $X2=0.645 $Y2=1.19
r32 10 11 145.28 $w=1.7e-07 $l=1.7e-07 $layer=licon1_POLY $count=1 $X=0.5
+ $Y=1.16 $X2=0.5 $Y2=1.16
r33 8 13 3.44395 $w=1.7e-07 $l=1.35e-07 $layer=LI1_cond $X=0.645 $Y=1.055
+ $X2=0.645 $Y2=1.19
r34 7 18 2.50919 $w=1.7e-07 $l=1.15e-07 $layer=LI1_cond $X=0.645 $Y=0.625
+ $X2=0.645 $Y2=0.51
r35 7 8 28.0535 $w=1.68e-07 $l=4.3e-07 $layer=LI1_cond $X=0.645 $Y=0.625
+ $X2=0.645 $Y2=1.055
r36 4 11 51.486 $w=2.55e-07 $l=2.52488e-07 $layer=POLY_cond $X=0.495 $Y=1.41
+ $X2=0.5 $Y2=1.16
r37 4 6 153.972 $w=1.8e-07 $l=5.75e-07 $layer=POLY_cond $X=0.495 $Y=1.41
+ $X2=0.495 $Y2=1.985
r38 1 11 39.2931 $w=2.55e-07 $l=1.79374e-07 $layer=POLY_cond $X=0.47 $Y=0.995
+ $X2=0.5 $Y2=1.16
r39 1 3 139.78 $w=1.5e-07 $l=4.35e-07 $layer=POLY_cond $X=0.47 $Y=0.995 $X2=0.47
+ $Y2=0.56
.ends

.subckt PM_SKY130_FD_SC_HDLL__MUXB16TO1_1%D[8] 1 3 4 6 8 13 15
c31 1 0 5.33021e-20 $X=0.47 $Y=4.445
r32 15 18 2.25478 $w=2.28e-07 $l=4.5e-08 $layer=LI1_cond $X=0.69 $Y=4.93
+ $X2=0.645 $Y2=4.93
r33 10 13 6.18905 $w=2.68e-07 $l=1.45e-07 $layer=LI1_cond $X=0.5 $Y=4.25
+ $X2=0.645 $Y2=4.25
r34 10 11 145.28 $w=1.7e-07 $l=1.7e-07 $layer=licon1_POLY $count=1 $X=0.5
+ $Y=4.28 $X2=0.5 $Y2=4.28
r35 8 18 2.50919 $w=1.7e-07 $l=1.15e-07 $layer=LI1_cond $X=0.645 $Y=4.815
+ $X2=0.645 $Y2=4.93
r36 7 13 3.44395 $w=1.7e-07 $l=1.35e-07 $layer=LI1_cond $X=0.645 $Y=4.385
+ $X2=0.645 $Y2=4.25
r37 7 8 28.0535 $w=1.68e-07 $l=4.3e-07 $layer=LI1_cond $X=0.645 $Y=4.385
+ $X2=0.645 $Y2=4.815
r38 4 11 51.486 $w=2.55e-07 $l=2.52488e-07 $layer=POLY_cond $X=0.495 $Y=4.03
+ $X2=0.5 $Y2=4.28
r39 4 6 153.972 $w=1.8e-07 $l=5.75e-07 $layer=POLY_cond $X=0.495 $Y=4.03
+ $X2=0.495 $Y2=3.455
r40 1 11 39.2931 $w=2.55e-07 $l=1.79374e-07 $layer=POLY_cond $X=0.47 $Y=4.445
+ $X2=0.5 $Y2=4.28
r41 1 3 139.78 $w=1.5e-07 $l=4.35e-07 $layer=POLY_cond $X=0.47 $Y=4.445 $X2=0.47
+ $Y2=4.88
.ends

.subckt PM_SKY130_FD_SC_HDLL__MUXB16TO1_1%A_184_265# 1 2 9 11 12 15 22 26
r58 20 22 9.67586 $w=2.9e-07 $l=3.23497e-07 $layer=LI1_cond $X=1.545 $Y=1.405
+ $X2=1.775 $Y2=1.63
r59 19 26 67.1279 $w=2.19e-07 $l=3.05e-07 $layer=POLY_cond $X=1.325 $Y=1.34
+ $X2=1.02 $Y2=1.34
r60 18 20 9.25517 $w=2.9e-07 $l=2.2e-07 $layer=LI1_cond $X=1.325 $Y=1.405
+ $X2=1.545 $Y2=1.405
r61 18 19 145.28 $w=1.7e-07 $l=1.7e-07 $layer=licon1_POLY $count=1 $X=1.325
+ $Y=1.34 $X2=1.325 $Y2=1.34
r62 15 22 23.5727 $w=3.28e-07 $l=6.75e-07 $layer=LI1_cond $X=1.775 $Y=2.31
+ $X2=1.775 $Y2=1.635
r63 12 20 3.86198 $w=1.7e-07 $l=2.3e-07 $layer=LI1_cond $X=1.545 $Y=1.175
+ $X2=1.545 $Y2=1.405
r64 11 25 8.93631 $w=3.14e-07 $l=3.19202e-07 $layer=LI1_cond $X=1.545 $Y=0.755
+ $X2=1.775 $Y2=0.542
r65 11 12 27.4011 $w=1.68e-07 $l=4.2e-07 $layer=LI1_cond $X=1.545 $Y=0.755
+ $X2=1.545 $Y2=1.175
r66 7 26 7.45852 $w=1.8e-07 $l=1.35e-07 $layer=POLY_cond $X=1.02 $Y=1.475
+ $X2=1.02 $Y2=1.34
r67 7 9 233.226 $w=1.8e-07 $l=6e-07 $layer=POLY_cond $X=1.02 $Y=1.475 $X2=1.02
+ $Y2=2.075
r68 2 22 400 $w=1.7e-07 $l=1.97864e-07 $layer=licon1_PDIFF $count=1 $X=1.65
+ $Y=1.485 $X2=1.775 $Y2=1.63
r69 2 15 400 $w=1.7e-07 $l=8.85297e-07 $layer=licon1_PDIFF $count=1 $X=1.65
+ $Y=1.485 $X2=1.775 $Y2=2.31
r70 1 25 182 $w=1.7e-07 $l=3.16386e-07 $layer=licon1_NDIFF $count=1 $X=1.65
+ $Y=0.235 $X2=1.775 $Y2=0.495
.ends

.subckt PM_SKY130_FD_SC_HDLL__MUXB16TO1_1%A_184_793# 1 2 9 12 13 15 26
r56 19 26 67.1279 $w=2.19e-07 $l=3.05e-07 $layer=POLY_cond $X=1.325 $Y=4.1
+ $X2=1.02 $Y2=4.1
r57 18 20 9.25517 $w=2.9e-07 $l=2.2e-07 $layer=LI1_cond $X=1.325 $Y=4.035
+ $X2=1.545 $Y2=4.035
r58 18 19 145.28 $w=1.7e-07 $l=1.7e-07 $layer=licon1_POLY $count=1 $X=1.325
+ $Y=4.1 $X2=1.325 $Y2=4.1
r59 13 20 9.67586 $w=2.9e-07 $l=3.25269e-07 $layer=LI1_cond $X=1.775 $Y=3.805
+ $X2=1.545 $Y2=4.035
r60 13 15 23.5727 $w=3.28e-07 $l=6.75e-07 $layer=LI1_cond $X=1.775 $Y=3.805
+ $X2=1.775 $Y2=3.13
r61 12 25 8.93631 $w=3.14e-07 $l=3.18842e-07 $layer=LI1_cond $X=1.545 $Y=4.685
+ $X2=1.775 $Y2=4.897
r62 11 20 3.86198 $w=1.7e-07 $l=2.3e-07 $layer=LI1_cond $X=1.545 $Y=4.265
+ $X2=1.545 $Y2=4.035
r63 11 12 27.4011 $w=1.68e-07 $l=4.2e-07 $layer=LI1_cond $X=1.545 $Y=4.265
+ $X2=1.545 $Y2=4.685
r64 7 26 7.45852 $w=1.8e-07 $l=1.35e-07 $layer=POLY_cond $X=1.02 $Y=3.965
+ $X2=1.02 $Y2=4.1
r65 7 9 233.226 $w=1.8e-07 $l=6e-07 $layer=POLY_cond $X=1.02 $Y=3.965 $X2=1.02
+ $Y2=3.365
r66 2 13 400 $w=1.7e-07 $l=9.15369e-07 $layer=licon1_PDIFF $count=1 $X=1.65
+ $Y=2.955 $X2=1.775 $Y2=3.81
r67 2 15 400 $w=1.7e-07 $l=2.29129e-07 $layer=licon1_PDIFF $count=1 $X=1.65
+ $Y=2.955 $X2=1.775 $Y2=3.13
r68 1 25 182 $w=1.7e-07 $l=3.16386e-07 $layer=licon1_NDIFF $count=1 $X=1.65
+ $Y=4.685 $X2=1.775 $Y2=4.945
.ends

.subckt PM_SKY130_FD_SC_HDLL__MUXB16TO1_1%S[0] 1 3 4 5 6 8 9 11 12 17
r49 16 17 145.28 $w=1.7e-07 $l=1.7e-07 $layer=licon1_POLY $count=1 $X=1.975
+ $Y=1.03 $X2=1.975 $Y2=1.03
r50 14 16 24.8967 $w=2.42e-07 $l=1.25e-07 $layer=POLY_cond $X=1.975 $Y=0.905
+ $X2=1.975 $Y2=1.03
r51 12 17 4.60977 $w=3.98e-07 $l=1.6e-07 $layer=LI1_cond $X=2.005 $Y=1.19
+ $X2=2.005 $Y2=1.03
r52 9 14 21.8618 $w=2.42e-07 $l=9.08295e-08 $layer=POLY_cond $X=2.01 $Y=0.83
+ $X2=1.975 $Y2=0.905
r53 9 11 107.647 $w=1.5e-07 $l=3.35e-07 $layer=POLY_cond $X=2.01 $Y=0.83
+ $X2=2.01 $Y2=0.495
r54 6 16 78.9522 $w=2.42e-07 $l=3.97115e-07 $layer=POLY_cond $X=2.01 $Y=1.41
+ $X2=1.975 $Y2=1.03
r55 6 8 153.972 $w=1.8e-07 $l=5.75e-07 $layer=POLY_cond $X=2.01 $Y=1.41 $X2=2.01
+ $Y2=1.985
r56 4 14 13.9682 $w=1.5e-07 $l=1.35e-07 $layer=POLY_cond $X=1.84 $Y=0.905
+ $X2=1.975 $Y2=0.905
r57 4 5 420.468 $w=1.5e-07 $l=8.2e-07 $layer=POLY_cond $X=1.84 $Y=0.905 $X2=1.02
+ $Y2=0.905
r58 1 5 26.9307 $w=1.5e-07 $l=1.06066e-07 $layer=POLY_cond $X=0.945 $Y=0.83
+ $X2=1.02 $Y2=0.905
r59 1 3 107.647 $w=1.5e-07 $l=3.35e-07 $layer=POLY_cond $X=0.945 $Y=0.83
+ $X2=0.945 $Y2=0.495
.ends

.subckt PM_SKY130_FD_SC_HDLL__MUXB16TO1_1%S[8] 1 3 4 5 6 8 9 11 12
r48 15 17 24.8967 $w=2.42e-07 $l=1.25e-07 $layer=POLY_cond $X=1.975 $Y=4.41
+ $X2=1.975 $Y2=4.535
r49 15 16 145.28 $w=1.7e-07 $l=1.7e-07 $layer=licon1_POLY $count=1 $X=1.975
+ $Y=4.41 $X2=1.975 $Y2=4.41
r50 12 16 4.60977 $w=3.98e-07 $l=1.6e-07 $layer=LI1_cond $X=2.005 $Y=4.25
+ $X2=2.005 $Y2=4.41
r51 9 17 21.8618 $w=2.42e-07 $l=9.08295e-08 $layer=POLY_cond $X=2.01 $Y=4.61
+ $X2=1.975 $Y2=4.535
r52 9 11 107.647 $w=1.5e-07 $l=3.35e-07 $layer=POLY_cond $X=2.01 $Y=4.61
+ $X2=2.01 $Y2=4.945
r53 6 15 78.9522 $w=2.42e-07 $l=3.97115e-07 $layer=POLY_cond $X=2.01 $Y=4.03
+ $X2=1.975 $Y2=4.41
r54 6 8 153.972 $w=1.8e-07 $l=5.75e-07 $layer=POLY_cond $X=2.01 $Y=4.03 $X2=2.01
+ $Y2=3.455
r55 4 17 13.9682 $w=1.5e-07 $l=1.35e-07 $layer=POLY_cond $X=1.84 $Y=4.535
+ $X2=1.975 $Y2=4.535
r56 4 5 420.468 $w=1.5e-07 $l=8.2e-07 $layer=POLY_cond $X=1.84 $Y=4.535 $X2=1.02
+ $Y2=4.535
r57 1 5 26.9307 $w=1.5e-07 $l=1.06066e-07 $layer=POLY_cond $X=0.945 $Y=4.61
+ $X2=1.02 $Y2=4.535
r58 1 3 107.647 $w=1.5e-07 $l=3.35e-07 $layer=POLY_cond $X=0.945 $Y=4.61
+ $X2=0.945 $Y2=4.945
.ends

.subckt PM_SKY130_FD_SC_HDLL__MUXB16TO1_1%S[1] 1 3 4 6 7 9 11 12 17
r46 16 17 145.28 $w=1.7e-07 $l=1.7e-07 $layer=licon1_POLY $count=1 $X=2.625
+ $Y=1.03 $X2=2.625 $Y2=1.03
r47 14 16 24.8967 $w=2.42e-07 $l=1.25e-07 $layer=POLY_cond $X=2.625 $Y=0.905
+ $X2=2.625 $Y2=1.03
r48 12 17 4.60977 $w=3.98e-07 $l=1.6e-07 $layer=LI1_cond $X=2.595 $Y=1.19
+ $X2=2.595 $Y2=1.03
r49 9 11 107.647 $w=1.5e-07 $l=3.35e-07 $layer=POLY_cond $X=3.655 $Y=0.83
+ $X2=3.655 $Y2=0.495
r50 8 14 13.9682 $w=1.5e-07 $l=1.35e-07 $layer=POLY_cond $X=2.76 $Y=0.905
+ $X2=2.625 $Y2=0.905
r51 7 9 26.9307 $w=1.5e-07 $l=1.06066e-07 $layer=POLY_cond $X=3.58 $Y=0.905
+ $X2=3.655 $Y2=0.83
r52 7 8 420.468 $w=1.5e-07 $l=8.2e-07 $layer=POLY_cond $X=3.58 $Y=0.905 $X2=2.76
+ $Y2=0.905
r53 4 14 21.8618 $w=2.42e-07 $l=9.08295e-08 $layer=POLY_cond $X=2.59 $Y=0.83
+ $X2=2.625 $Y2=0.905
r54 4 6 107.647 $w=1.5e-07 $l=3.35e-07 $layer=POLY_cond $X=2.59 $Y=0.83 $X2=2.59
+ $Y2=0.495
r55 1 16 78.9522 $w=2.42e-07 $l=3.97115e-07 $layer=POLY_cond $X=2.59 $Y=1.41
+ $X2=2.625 $Y2=1.03
r56 1 3 153.972 $w=1.8e-07 $l=5.75e-07 $layer=POLY_cond $X=2.59 $Y=1.41 $X2=2.59
+ $Y2=1.985
.ends

.subckt PM_SKY130_FD_SC_HDLL__MUXB16TO1_1%S[9] 1 3 4 6 7 9 11 12
r47 15 17 24.8967 $w=2.42e-07 $l=1.25e-07 $layer=POLY_cond $X=2.625 $Y=4.41
+ $X2=2.625 $Y2=4.535
r48 15 16 145.28 $w=1.7e-07 $l=1.7e-07 $layer=licon1_POLY $count=1 $X=2.625
+ $Y=4.41 $X2=2.625 $Y2=4.41
r49 12 16 4.60977 $w=3.98e-07 $l=1.6e-07 $layer=LI1_cond $X=2.595 $Y=4.25
+ $X2=2.595 $Y2=4.41
r50 9 11 107.647 $w=1.5e-07 $l=3.35e-07 $layer=POLY_cond $X=3.655 $Y=4.61
+ $X2=3.655 $Y2=4.945
r51 8 17 13.9682 $w=1.5e-07 $l=1.35e-07 $layer=POLY_cond $X=2.76 $Y=4.535
+ $X2=2.625 $Y2=4.535
r52 7 9 26.9307 $w=1.5e-07 $l=1.06066e-07 $layer=POLY_cond $X=3.58 $Y=4.535
+ $X2=3.655 $Y2=4.61
r53 7 8 420.468 $w=1.5e-07 $l=8.2e-07 $layer=POLY_cond $X=3.58 $Y=4.535 $X2=2.76
+ $Y2=4.535
r54 4 17 21.8618 $w=2.42e-07 $l=9.08295e-08 $layer=POLY_cond $X=2.59 $Y=4.61
+ $X2=2.625 $Y2=4.535
r55 4 6 107.647 $w=1.5e-07 $l=3.35e-07 $layer=POLY_cond $X=2.59 $Y=4.61 $X2=2.59
+ $Y2=4.945
r56 1 15 78.9522 $w=2.42e-07 $l=3.97115e-07 $layer=POLY_cond $X=2.59 $Y=4.03
+ $X2=2.625 $Y2=4.41
r57 1 3 153.972 $w=1.8e-07 $l=5.75e-07 $layer=POLY_cond $X=2.59 $Y=4.03 $X2=2.59
+ $Y2=3.455
.ends

.subckt PM_SKY130_FD_SC_HDLL__MUXB16TO1_1%A_533_47# 1 2 9 13 16 19 22 24
r57 22 27 67.1279 $w=2.19e-07 $l=3.05e-07 $layer=POLY_cond $X=3.275 $Y=1.34
+ $X2=3.58 $Y2=1.34
r58 21 22 145.28 $w=1.7e-07 $l=1.7e-07 $layer=licon1_POLY $count=1 $X=3.275
+ $Y=1.34 $X2=3.275 $Y2=1.34
r59 19 21 9.25517 $w=2.9e-07 $l=2.2e-07 $layer=LI1_cond $X=3.055 $Y=1.405
+ $X2=3.275 $Y2=1.405
r60 18 19 9.67586 $w=2.9e-07 $l=3.23497e-07 $layer=LI1_cond $X=2.825 $Y=1.63
+ $X2=3.055 $Y2=1.405
r61 16 19 3.86198 $w=1.7e-07 $l=2.3e-07 $layer=LI1_cond $X=3.055 $Y=1.175
+ $X2=3.055 $Y2=1.405
r62 15 24 8.93631 $w=3.14e-07 $l=3.19202e-07 $layer=LI1_cond $X=3.055 $Y=0.755
+ $X2=2.825 $Y2=0.542
r63 15 16 27.4011 $w=1.68e-07 $l=4.2e-07 $layer=LI1_cond $X=3.055 $Y=0.755
+ $X2=3.055 $Y2=1.175
r64 13 18 23.5727 $w=3.28e-07 $l=6.75e-07 $layer=LI1_cond $X=2.825 $Y=2.31
+ $X2=2.825 $Y2=1.635
r65 7 27 7.45852 $w=1.8e-07 $l=1.35e-07 $layer=POLY_cond $X=3.58 $Y=1.475
+ $X2=3.58 $Y2=1.34
r66 7 9 233.226 $w=1.8e-07 $l=6e-07 $layer=POLY_cond $X=3.58 $Y=1.475 $X2=3.58
+ $Y2=2.075
r67 2 18 400 $w=1.7e-07 $l=2.05061e-07 $layer=licon1_PDIFF $count=1 $X=2.68
+ $Y=1.485 $X2=2.825 $Y2=1.63
r68 2 13 400 $w=1.7e-07 $l=8.94567e-07 $layer=licon1_PDIFF $count=1 $X=2.68
+ $Y=1.485 $X2=2.825 $Y2=2.31
r69 1 24 182 $w=1.7e-07 $l=3.30454e-07 $layer=licon1_NDIFF $count=1 $X=2.665
+ $Y=0.235 $X2=2.825 $Y2=0.495
.ends

.subckt PM_SKY130_FD_SC_HDLL__MUXB16TO1_1%A_533_937# 1 2 9 13 16 19 22 24
r59 22 27 67.1279 $w=2.19e-07 $l=3.05e-07 $layer=POLY_cond $X=3.275 $Y=4.1
+ $X2=3.58 $Y2=4.1
r60 21 22 145.28 $w=1.7e-07 $l=1.7e-07 $layer=licon1_POLY $count=1 $X=3.275
+ $Y=4.1 $X2=3.275 $Y2=4.1
r61 19 21 9.25517 $w=2.9e-07 $l=2.2e-07 $layer=LI1_cond $X=3.055 $Y=4.035
+ $X2=3.275 $Y2=4.035
r62 16 24 8.93631 $w=3.14e-07 $l=3.18842e-07 $layer=LI1_cond $X=3.055 $Y=4.685
+ $X2=2.825 $Y2=4.897
r63 15 19 3.86198 $w=1.7e-07 $l=2.3e-07 $layer=LI1_cond $X=3.055 $Y=4.265
+ $X2=3.055 $Y2=4.035
r64 15 16 27.4011 $w=1.68e-07 $l=4.2e-07 $layer=LI1_cond $X=3.055 $Y=4.265
+ $X2=3.055 $Y2=4.685
r65 11 19 9.67586 $w=2.9e-07 $l=3.25269e-07 $layer=LI1_cond $X=2.825 $Y=3.805
+ $X2=3.055 $Y2=4.035
r66 11 13 23.5727 $w=3.28e-07 $l=6.75e-07 $layer=LI1_cond $X=2.825 $Y=3.805
+ $X2=2.825 $Y2=3.13
r67 7 27 7.45852 $w=1.8e-07 $l=1.35e-07 $layer=POLY_cond $X=3.58 $Y=3.965
+ $X2=3.58 $Y2=4.1
r68 7 9 233.226 $w=1.8e-07 $l=6e-07 $layer=POLY_cond $X=3.58 $Y=3.965 $X2=3.58
+ $Y2=3.365
r69 2 11 400 $w=1.7e-07 $l=9.24662e-07 $layer=licon1_PDIFF $count=1 $X=2.68
+ $Y=2.955 $X2=2.825 $Y2=3.81
r70 2 13 400 $w=1.7e-07 $l=2.36643e-07 $layer=licon1_PDIFF $count=1 $X=2.68
+ $Y=2.955 $X2=2.825 $Y2=3.13
r71 1 24 182 $w=1.7e-07 $l=3.30454e-07 $layer=licon1_NDIFF $count=1 $X=2.665
+ $Y=4.685 $X2=2.825 $Y2=4.945
.ends

.subckt PM_SKY130_FD_SC_HDLL__MUXB16TO1_1%D[1] 1 3 4 6 8 12 15 21
c38 8 0 1.78369e-19 $X=3.955 $Y=1.055
c39 1 0 2.31671e-19 $X=4.105 $Y=1.41
r40 15 21 2.25478 $w=2.28e-07 $l=4.5e-08 $layer=LI1_cond $X=3.91 $Y=0.51
+ $X2=3.955 $Y2=0.51
r41 12 13 145.28 $w=1.7e-07 $l=1.7e-07 $layer=licon1_POLY $count=1 $X=4.1
+ $Y=1.16 $X2=4.1 $Y2=1.16
r42 9 12 6.18905 $w=2.68e-07 $l=1.45e-07 $layer=LI1_cond $X=3.955 $Y=1.19
+ $X2=4.1 $Y2=1.19
r43 8 9 3.44395 $w=1.7e-07 $l=1.35e-07 $layer=LI1_cond $X=3.955 $Y=1.055
+ $X2=3.955 $Y2=1.19
r44 7 21 2.50919 $w=1.7e-07 $l=1.15e-07 $layer=LI1_cond $X=3.955 $Y=0.625
+ $X2=3.955 $Y2=0.51
r45 7 8 28.0535 $w=1.68e-07 $l=4.3e-07 $layer=LI1_cond $X=3.955 $Y=0.625
+ $X2=3.955 $Y2=1.055
r46 4 13 39.2931 $w=2.55e-07 $l=1.79374e-07 $layer=POLY_cond $X=4.13 $Y=0.995
+ $X2=4.1 $Y2=1.16
r47 4 6 139.78 $w=1.5e-07 $l=4.35e-07 $layer=POLY_cond $X=4.13 $Y=0.995 $X2=4.13
+ $Y2=0.56
r48 1 13 51.486 $w=2.55e-07 $l=2.52488e-07 $layer=POLY_cond $X=4.105 $Y=1.41
+ $X2=4.1 $Y2=1.16
r49 1 3 153.972 $w=1.8e-07 $l=5.75e-07 $layer=POLY_cond $X=4.105 $Y=1.41
+ $X2=4.105 $Y2=1.985
.ends

.subckt PM_SKY130_FD_SC_HDLL__MUXB16TO1_1%D[9] 1 3 4 6 8 12 15 21
c41 8 0 1.78369e-19 $X=3.955 $Y=4.815
c42 4 0 2.31671e-19 $X=4.13 $Y=4.445
r43 15 21 2.25478 $w=2.28e-07 $l=4.5e-08 $layer=LI1_cond $X=3.91 $Y=4.93
+ $X2=3.955 $Y2=4.93
r44 12 13 145.28 $w=1.7e-07 $l=1.7e-07 $layer=licon1_POLY $count=1 $X=4.1
+ $Y=4.28 $X2=4.1 $Y2=4.28
r45 9 12 6.18905 $w=2.68e-07 $l=1.45e-07 $layer=LI1_cond $X=3.955 $Y=4.25
+ $X2=4.1 $Y2=4.25
r46 8 21 2.50919 $w=1.7e-07 $l=1.15e-07 $layer=LI1_cond $X=3.955 $Y=4.815
+ $X2=3.955 $Y2=4.93
r47 7 9 3.44395 $w=1.7e-07 $l=1.35e-07 $layer=LI1_cond $X=3.955 $Y=4.385
+ $X2=3.955 $Y2=4.25
r48 7 8 28.0535 $w=1.68e-07 $l=4.3e-07 $layer=LI1_cond $X=3.955 $Y=4.385
+ $X2=3.955 $Y2=4.815
r49 4 13 39.2931 $w=2.55e-07 $l=1.79374e-07 $layer=POLY_cond $X=4.13 $Y=4.445
+ $X2=4.1 $Y2=4.28
r50 4 6 139.78 $w=1.5e-07 $l=4.35e-07 $layer=POLY_cond $X=4.13 $Y=4.445 $X2=4.13
+ $Y2=4.88
r51 1 13 51.486 $w=2.55e-07 $l=2.52488e-07 $layer=POLY_cond $X=4.105 $Y=4.03
+ $X2=4.1 $Y2=4.28
r52 1 3 153.972 $w=1.8e-07 $l=5.75e-07 $layer=POLY_cond $X=4.105 $Y=4.03
+ $X2=4.105 $Y2=3.455
.ends

.subckt PM_SKY130_FD_SC_HDLL__MUXB16TO1_1%D[2] 1 3 4 6 8 13 15
c38 8 0 1.78369e-19 $X=4.785 $Y=1.055
c39 4 0 2.31671e-19 $X=4.635 $Y=1.41
r40 15 18 2.25478 $w=2.28e-07 $l=4.5e-08 $layer=LI1_cond $X=4.83 $Y=0.51
+ $X2=4.785 $Y2=0.51
r41 10 13 6.18905 $w=2.68e-07 $l=1.45e-07 $layer=LI1_cond $X=4.64 $Y=1.19
+ $X2=4.785 $Y2=1.19
r42 10 11 145.28 $w=1.7e-07 $l=1.7e-07 $layer=licon1_POLY $count=1 $X=4.64
+ $Y=1.16 $X2=4.64 $Y2=1.16
r43 8 13 3.44395 $w=1.7e-07 $l=1.35e-07 $layer=LI1_cond $X=4.785 $Y=1.055
+ $X2=4.785 $Y2=1.19
r44 7 18 2.50919 $w=1.7e-07 $l=1.15e-07 $layer=LI1_cond $X=4.785 $Y=0.625
+ $X2=4.785 $Y2=0.51
r45 7 8 28.0535 $w=1.68e-07 $l=4.3e-07 $layer=LI1_cond $X=4.785 $Y=0.625
+ $X2=4.785 $Y2=1.055
r46 4 11 51.486 $w=2.55e-07 $l=2.52488e-07 $layer=POLY_cond $X=4.635 $Y=1.41
+ $X2=4.64 $Y2=1.16
r47 4 6 153.972 $w=1.8e-07 $l=5.75e-07 $layer=POLY_cond $X=4.635 $Y=1.41
+ $X2=4.635 $Y2=1.985
r48 1 11 39.2931 $w=2.55e-07 $l=1.79374e-07 $layer=POLY_cond $X=4.61 $Y=0.995
+ $X2=4.64 $Y2=1.16
r49 1 3 139.78 $w=1.5e-07 $l=4.35e-07 $layer=POLY_cond $X=4.61 $Y=0.995 $X2=4.61
+ $Y2=0.56
.ends

.subckt PM_SKY130_FD_SC_HDLL__MUXB16TO1_1%D[10] 1 3 4 6 8 13 15
c41 8 0 1.78369e-19 $X=4.785 $Y=4.815
c42 1 0 2.31671e-19 $X=4.61 $Y=4.445
r43 15 18 2.25478 $w=2.28e-07 $l=4.5e-08 $layer=LI1_cond $X=4.83 $Y=4.93
+ $X2=4.785 $Y2=4.93
r44 10 13 6.18905 $w=2.68e-07 $l=1.45e-07 $layer=LI1_cond $X=4.64 $Y=4.25
+ $X2=4.785 $Y2=4.25
r45 10 11 145.28 $w=1.7e-07 $l=1.7e-07 $layer=licon1_POLY $count=1 $X=4.64
+ $Y=4.28 $X2=4.64 $Y2=4.28
r46 8 18 2.50919 $w=1.7e-07 $l=1.15e-07 $layer=LI1_cond $X=4.785 $Y=4.815
+ $X2=4.785 $Y2=4.93
r47 7 13 3.44395 $w=1.7e-07 $l=1.35e-07 $layer=LI1_cond $X=4.785 $Y=4.385
+ $X2=4.785 $Y2=4.25
r48 7 8 28.0535 $w=1.68e-07 $l=4.3e-07 $layer=LI1_cond $X=4.785 $Y=4.385
+ $X2=4.785 $Y2=4.815
r49 4 11 51.486 $w=2.55e-07 $l=2.52488e-07 $layer=POLY_cond $X=4.635 $Y=4.03
+ $X2=4.64 $Y2=4.28
r50 4 6 153.972 $w=1.8e-07 $l=5.75e-07 $layer=POLY_cond $X=4.635 $Y=4.03
+ $X2=4.635 $Y2=3.455
r51 1 11 39.2931 $w=2.55e-07 $l=1.79374e-07 $layer=POLY_cond $X=4.61 $Y=4.445
+ $X2=4.64 $Y2=4.28
r52 1 3 139.78 $w=1.5e-07 $l=4.35e-07 $layer=POLY_cond $X=4.61 $Y=4.445 $X2=4.61
+ $Y2=4.88
.ends

.subckt PM_SKY130_FD_SC_HDLL__MUXB16TO1_1%A_1012_265# 1 2 9 11 12 15 22 26
r58 20 22 9.67586 $w=2.9e-07 $l=3.23497e-07 $layer=LI1_cond $X=5.685 $Y=1.405
+ $X2=5.915 $Y2=1.63
r59 19 26 67.1279 $w=2.19e-07 $l=3.05e-07 $layer=POLY_cond $X=5.465 $Y=1.34
+ $X2=5.16 $Y2=1.34
r60 18 20 9.25517 $w=2.9e-07 $l=2.2e-07 $layer=LI1_cond $X=5.465 $Y=1.405
+ $X2=5.685 $Y2=1.405
r61 18 19 145.28 $w=1.7e-07 $l=1.7e-07 $layer=licon1_POLY $count=1 $X=5.465
+ $Y=1.34 $X2=5.465 $Y2=1.34
r62 15 22 23.5727 $w=3.28e-07 $l=6.75e-07 $layer=LI1_cond $X=5.915 $Y=2.31
+ $X2=5.915 $Y2=1.635
r63 12 20 3.86198 $w=1.7e-07 $l=2.3e-07 $layer=LI1_cond $X=5.685 $Y=1.175
+ $X2=5.685 $Y2=1.405
r64 11 25 8.93631 $w=3.14e-07 $l=3.19202e-07 $layer=LI1_cond $X=5.685 $Y=0.755
+ $X2=5.915 $Y2=0.542
r65 11 12 27.4011 $w=1.68e-07 $l=4.2e-07 $layer=LI1_cond $X=5.685 $Y=0.755
+ $X2=5.685 $Y2=1.175
r66 7 26 7.45852 $w=1.8e-07 $l=1.35e-07 $layer=POLY_cond $X=5.16 $Y=1.475
+ $X2=5.16 $Y2=1.34
r67 7 9 233.226 $w=1.8e-07 $l=6e-07 $layer=POLY_cond $X=5.16 $Y=1.475 $X2=5.16
+ $Y2=2.075
r68 2 22 400 $w=1.7e-07 $l=1.97864e-07 $layer=licon1_PDIFF $count=1 $X=5.79
+ $Y=1.485 $X2=5.915 $Y2=1.63
r69 2 15 400 $w=1.7e-07 $l=8.85297e-07 $layer=licon1_PDIFF $count=1 $X=5.79
+ $Y=1.485 $X2=5.915 $Y2=2.31
r70 1 25 182 $w=1.7e-07 $l=3.16386e-07 $layer=licon1_NDIFF $count=1 $X=5.79
+ $Y=0.235 $X2=5.915 $Y2=0.495
.ends

.subckt PM_SKY130_FD_SC_HDLL__MUXB16TO1_1%A_1012_793# 1 2 9 12 13 15 26
r56 19 26 67.1279 $w=2.19e-07 $l=3.05e-07 $layer=POLY_cond $X=5.465 $Y=4.1
+ $X2=5.16 $Y2=4.1
r57 18 20 9.25517 $w=2.9e-07 $l=2.2e-07 $layer=LI1_cond $X=5.465 $Y=4.035
+ $X2=5.685 $Y2=4.035
r58 18 19 145.28 $w=1.7e-07 $l=1.7e-07 $layer=licon1_POLY $count=1 $X=5.465
+ $Y=4.1 $X2=5.465 $Y2=4.1
r59 13 20 9.67586 $w=2.9e-07 $l=3.25269e-07 $layer=LI1_cond $X=5.915 $Y=3.805
+ $X2=5.685 $Y2=4.035
r60 13 15 23.5727 $w=3.28e-07 $l=6.75e-07 $layer=LI1_cond $X=5.915 $Y=3.805
+ $X2=5.915 $Y2=3.13
r61 12 25 8.93631 $w=3.14e-07 $l=3.18842e-07 $layer=LI1_cond $X=5.685 $Y=4.685
+ $X2=5.915 $Y2=4.897
r62 11 20 3.86198 $w=1.7e-07 $l=2.3e-07 $layer=LI1_cond $X=5.685 $Y=4.265
+ $X2=5.685 $Y2=4.035
r63 11 12 27.4011 $w=1.68e-07 $l=4.2e-07 $layer=LI1_cond $X=5.685 $Y=4.265
+ $X2=5.685 $Y2=4.685
r64 7 26 7.45852 $w=1.8e-07 $l=1.35e-07 $layer=POLY_cond $X=5.16 $Y=3.965
+ $X2=5.16 $Y2=4.1
r65 7 9 233.226 $w=1.8e-07 $l=6e-07 $layer=POLY_cond $X=5.16 $Y=3.965 $X2=5.16
+ $Y2=3.365
r66 2 13 400 $w=1.7e-07 $l=9.15369e-07 $layer=licon1_PDIFF $count=1 $X=5.79
+ $Y=2.955 $X2=5.915 $Y2=3.81
r67 2 15 400 $w=1.7e-07 $l=2.29129e-07 $layer=licon1_PDIFF $count=1 $X=5.79
+ $Y=2.955 $X2=5.915 $Y2=3.13
r68 1 25 182 $w=1.7e-07 $l=3.16386e-07 $layer=licon1_NDIFF $count=1 $X=5.79
+ $Y=4.685 $X2=5.915 $Y2=4.945
.ends

.subckt PM_SKY130_FD_SC_HDLL__MUXB16TO1_1%S[2] 1 3 4 5 6 8 9 11 12 17
r49 16 17 145.28 $w=1.7e-07 $l=1.7e-07 $layer=licon1_POLY $count=1 $X=6.115
+ $Y=1.03 $X2=6.115 $Y2=1.03
r50 14 16 24.8967 $w=2.42e-07 $l=1.25e-07 $layer=POLY_cond $X=6.115 $Y=0.905
+ $X2=6.115 $Y2=1.03
r51 12 17 4.60977 $w=3.98e-07 $l=1.6e-07 $layer=LI1_cond $X=6.145 $Y=1.19
+ $X2=6.145 $Y2=1.03
r52 9 14 21.8618 $w=2.42e-07 $l=9.08295e-08 $layer=POLY_cond $X=6.15 $Y=0.83
+ $X2=6.115 $Y2=0.905
r53 9 11 107.647 $w=1.5e-07 $l=3.35e-07 $layer=POLY_cond $X=6.15 $Y=0.83
+ $X2=6.15 $Y2=0.495
r54 6 16 78.9522 $w=2.42e-07 $l=3.97115e-07 $layer=POLY_cond $X=6.15 $Y=1.41
+ $X2=6.115 $Y2=1.03
r55 6 8 153.972 $w=1.8e-07 $l=5.75e-07 $layer=POLY_cond $X=6.15 $Y=1.41 $X2=6.15
+ $Y2=1.985
r56 4 14 13.9682 $w=1.5e-07 $l=1.35e-07 $layer=POLY_cond $X=5.98 $Y=0.905
+ $X2=6.115 $Y2=0.905
r57 4 5 420.468 $w=1.5e-07 $l=8.2e-07 $layer=POLY_cond $X=5.98 $Y=0.905 $X2=5.16
+ $Y2=0.905
r58 1 5 26.9307 $w=1.5e-07 $l=1.06066e-07 $layer=POLY_cond $X=5.085 $Y=0.83
+ $X2=5.16 $Y2=0.905
r59 1 3 107.647 $w=1.5e-07 $l=3.35e-07 $layer=POLY_cond $X=5.085 $Y=0.83
+ $X2=5.085 $Y2=0.495
.ends

.subckt PM_SKY130_FD_SC_HDLL__MUXB16TO1_1%S[10] 1 3 4 5 6 8 9 11 12
r48 15 17 24.8967 $w=2.42e-07 $l=1.25e-07 $layer=POLY_cond $X=6.115 $Y=4.41
+ $X2=6.115 $Y2=4.535
r49 15 16 145.28 $w=1.7e-07 $l=1.7e-07 $layer=licon1_POLY $count=1 $X=6.115
+ $Y=4.41 $X2=6.115 $Y2=4.41
r50 12 16 4.60977 $w=3.98e-07 $l=1.6e-07 $layer=LI1_cond $X=6.145 $Y=4.25
+ $X2=6.145 $Y2=4.41
r51 9 17 21.8618 $w=2.42e-07 $l=9.08295e-08 $layer=POLY_cond $X=6.15 $Y=4.61
+ $X2=6.115 $Y2=4.535
r52 9 11 107.647 $w=1.5e-07 $l=3.35e-07 $layer=POLY_cond $X=6.15 $Y=4.61
+ $X2=6.15 $Y2=4.945
r53 6 15 78.9522 $w=2.42e-07 $l=3.97115e-07 $layer=POLY_cond $X=6.15 $Y=4.03
+ $X2=6.115 $Y2=4.41
r54 6 8 153.972 $w=1.8e-07 $l=5.75e-07 $layer=POLY_cond $X=6.15 $Y=4.03 $X2=6.15
+ $Y2=3.455
r55 4 17 13.9682 $w=1.5e-07 $l=1.35e-07 $layer=POLY_cond $X=5.98 $Y=4.535
+ $X2=6.115 $Y2=4.535
r56 4 5 420.468 $w=1.5e-07 $l=8.2e-07 $layer=POLY_cond $X=5.98 $Y=4.535 $X2=5.16
+ $Y2=4.535
r57 1 5 26.9307 $w=1.5e-07 $l=1.06066e-07 $layer=POLY_cond $X=5.085 $Y=4.61
+ $X2=5.16 $Y2=4.535
r58 1 3 107.647 $w=1.5e-07 $l=3.35e-07 $layer=POLY_cond $X=5.085 $Y=4.61
+ $X2=5.085 $Y2=4.945
.ends

.subckt PM_SKY130_FD_SC_HDLL__MUXB16TO1_1%S[3] 1 3 4 6 7 9 11 12 17
r46 16 17 145.28 $w=1.7e-07 $l=1.7e-07 $layer=licon1_POLY $count=1 $X=6.765
+ $Y=1.03 $X2=6.765 $Y2=1.03
r47 14 16 24.8967 $w=2.42e-07 $l=1.25e-07 $layer=POLY_cond $X=6.765 $Y=0.905
+ $X2=6.765 $Y2=1.03
r48 12 17 4.60977 $w=3.98e-07 $l=1.6e-07 $layer=LI1_cond $X=6.735 $Y=1.19
+ $X2=6.735 $Y2=1.03
r49 9 11 107.647 $w=1.5e-07 $l=3.35e-07 $layer=POLY_cond $X=7.795 $Y=0.83
+ $X2=7.795 $Y2=0.495
r50 8 14 13.9682 $w=1.5e-07 $l=1.35e-07 $layer=POLY_cond $X=6.9 $Y=0.905
+ $X2=6.765 $Y2=0.905
r51 7 9 26.9307 $w=1.5e-07 $l=1.06066e-07 $layer=POLY_cond $X=7.72 $Y=0.905
+ $X2=7.795 $Y2=0.83
r52 7 8 420.468 $w=1.5e-07 $l=8.2e-07 $layer=POLY_cond $X=7.72 $Y=0.905 $X2=6.9
+ $Y2=0.905
r53 4 14 21.8618 $w=2.42e-07 $l=9.08295e-08 $layer=POLY_cond $X=6.73 $Y=0.83
+ $X2=6.765 $Y2=0.905
r54 4 6 107.647 $w=1.5e-07 $l=3.35e-07 $layer=POLY_cond $X=6.73 $Y=0.83 $X2=6.73
+ $Y2=0.495
r55 1 16 78.9522 $w=2.42e-07 $l=3.97115e-07 $layer=POLY_cond $X=6.73 $Y=1.41
+ $X2=6.765 $Y2=1.03
r56 1 3 153.972 $w=1.8e-07 $l=5.75e-07 $layer=POLY_cond $X=6.73 $Y=1.41 $X2=6.73
+ $Y2=1.985
.ends

.subckt PM_SKY130_FD_SC_HDLL__MUXB16TO1_1%S[11] 1 3 4 6 7 9 11 12
r47 15 17 24.8967 $w=2.42e-07 $l=1.25e-07 $layer=POLY_cond $X=6.765 $Y=4.41
+ $X2=6.765 $Y2=4.535
r48 15 16 145.28 $w=1.7e-07 $l=1.7e-07 $layer=licon1_POLY $count=1 $X=6.765
+ $Y=4.41 $X2=6.765 $Y2=4.41
r49 12 16 4.60977 $w=3.98e-07 $l=1.6e-07 $layer=LI1_cond $X=6.735 $Y=4.25
+ $X2=6.735 $Y2=4.41
r50 9 11 107.647 $w=1.5e-07 $l=3.35e-07 $layer=POLY_cond $X=7.795 $Y=4.61
+ $X2=7.795 $Y2=4.945
r51 8 17 13.9682 $w=1.5e-07 $l=1.35e-07 $layer=POLY_cond $X=6.9 $Y=4.535
+ $X2=6.765 $Y2=4.535
r52 7 9 26.9307 $w=1.5e-07 $l=1.06066e-07 $layer=POLY_cond $X=7.72 $Y=4.535
+ $X2=7.795 $Y2=4.61
r53 7 8 420.468 $w=1.5e-07 $l=8.2e-07 $layer=POLY_cond $X=7.72 $Y=4.535 $X2=6.9
+ $Y2=4.535
r54 4 17 21.8618 $w=2.42e-07 $l=9.08295e-08 $layer=POLY_cond $X=6.73 $Y=4.61
+ $X2=6.765 $Y2=4.535
r55 4 6 107.647 $w=1.5e-07 $l=3.35e-07 $layer=POLY_cond $X=6.73 $Y=4.61 $X2=6.73
+ $Y2=4.945
r56 1 15 78.9522 $w=2.42e-07 $l=3.97115e-07 $layer=POLY_cond $X=6.73 $Y=4.03
+ $X2=6.765 $Y2=4.41
r57 1 3 153.972 $w=1.8e-07 $l=5.75e-07 $layer=POLY_cond $X=6.73 $Y=4.03 $X2=6.73
+ $Y2=3.455
.ends

.subckt PM_SKY130_FD_SC_HDLL__MUXB16TO1_1%A_1361_47# 1 2 9 13 16 19 22 24
r57 22 27 67.1279 $w=2.19e-07 $l=3.05e-07 $layer=POLY_cond $X=7.415 $Y=1.34
+ $X2=7.72 $Y2=1.34
r58 21 22 145.28 $w=1.7e-07 $l=1.7e-07 $layer=licon1_POLY $count=1 $X=7.415
+ $Y=1.34 $X2=7.415 $Y2=1.34
r59 19 21 9.25517 $w=2.9e-07 $l=2.2e-07 $layer=LI1_cond $X=7.195 $Y=1.405
+ $X2=7.415 $Y2=1.405
r60 18 19 9.67586 $w=2.9e-07 $l=3.23497e-07 $layer=LI1_cond $X=6.965 $Y=1.63
+ $X2=7.195 $Y2=1.405
r61 16 19 3.86198 $w=1.7e-07 $l=2.3e-07 $layer=LI1_cond $X=7.195 $Y=1.175
+ $X2=7.195 $Y2=1.405
r62 15 24 8.93631 $w=3.14e-07 $l=3.19202e-07 $layer=LI1_cond $X=7.195 $Y=0.755
+ $X2=6.965 $Y2=0.542
r63 15 16 27.4011 $w=1.68e-07 $l=4.2e-07 $layer=LI1_cond $X=7.195 $Y=0.755
+ $X2=7.195 $Y2=1.175
r64 13 18 23.5727 $w=3.28e-07 $l=6.75e-07 $layer=LI1_cond $X=6.965 $Y=2.31
+ $X2=6.965 $Y2=1.635
r65 7 27 7.45852 $w=1.8e-07 $l=1.35e-07 $layer=POLY_cond $X=7.72 $Y=1.475
+ $X2=7.72 $Y2=1.34
r66 7 9 233.226 $w=1.8e-07 $l=6e-07 $layer=POLY_cond $X=7.72 $Y=1.475 $X2=7.72
+ $Y2=2.075
r67 2 18 400 $w=1.7e-07 $l=2.05061e-07 $layer=licon1_PDIFF $count=1 $X=6.82
+ $Y=1.485 $X2=6.965 $Y2=1.63
r68 2 13 400 $w=1.7e-07 $l=8.94567e-07 $layer=licon1_PDIFF $count=1 $X=6.82
+ $Y=1.485 $X2=6.965 $Y2=2.31
r69 1 24 182 $w=1.7e-07 $l=3.30454e-07 $layer=licon1_NDIFF $count=1 $X=6.805
+ $Y=0.235 $X2=6.965 $Y2=0.495
.ends

.subckt PM_SKY130_FD_SC_HDLL__MUXB16TO1_1%A_1361_937# 1 2 9 13 16 19 22 24
r59 22 27 67.1279 $w=2.19e-07 $l=3.05e-07 $layer=POLY_cond $X=7.415 $Y=4.1
+ $X2=7.72 $Y2=4.1
r60 21 22 145.28 $w=1.7e-07 $l=1.7e-07 $layer=licon1_POLY $count=1 $X=7.415
+ $Y=4.1 $X2=7.415 $Y2=4.1
r61 19 21 9.25517 $w=2.9e-07 $l=2.2e-07 $layer=LI1_cond $X=7.195 $Y=4.035
+ $X2=7.415 $Y2=4.035
r62 16 24 8.93631 $w=3.14e-07 $l=3.18842e-07 $layer=LI1_cond $X=7.195 $Y=4.685
+ $X2=6.965 $Y2=4.897
r63 15 19 3.86198 $w=1.7e-07 $l=2.3e-07 $layer=LI1_cond $X=7.195 $Y=4.265
+ $X2=7.195 $Y2=4.035
r64 15 16 27.4011 $w=1.68e-07 $l=4.2e-07 $layer=LI1_cond $X=7.195 $Y=4.265
+ $X2=7.195 $Y2=4.685
r65 11 19 9.67586 $w=2.9e-07 $l=3.25269e-07 $layer=LI1_cond $X=6.965 $Y=3.805
+ $X2=7.195 $Y2=4.035
r66 11 13 23.5727 $w=3.28e-07 $l=6.75e-07 $layer=LI1_cond $X=6.965 $Y=3.805
+ $X2=6.965 $Y2=3.13
r67 7 27 7.45852 $w=1.8e-07 $l=1.35e-07 $layer=POLY_cond $X=7.72 $Y=3.965
+ $X2=7.72 $Y2=4.1
r68 7 9 233.226 $w=1.8e-07 $l=6e-07 $layer=POLY_cond $X=7.72 $Y=3.965 $X2=7.72
+ $Y2=3.365
r69 2 11 400 $w=1.7e-07 $l=9.24662e-07 $layer=licon1_PDIFF $count=1 $X=6.82
+ $Y=2.955 $X2=6.965 $Y2=3.81
r70 2 13 400 $w=1.7e-07 $l=2.36643e-07 $layer=licon1_PDIFF $count=1 $X=6.82
+ $Y=2.955 $X2=6.965 $Y2=3.13
r71 1 24 182 $w=1.7e-07 $l=3.30454e-07 $layer=licon1_NDIFF $count=1 $X=6.805
+ $Y=4.685 $X2=6.965 $Y2=4.945
.ends

.subckt PM_SKY130_FD_SC_HDLL__MUXB16TO1_1%D[3] 1 3 4 6 8 12 15 21
c38 8 0 1.78369e-19 $X=8.095 $Y=1.055
c39 1 0 2.31671e-19 $X=8.245 $Y=1.41
r40 15 21 2.25478 $w=2.28e-07 $l=4.5e-08 $layer=LI1_cond $X=8.05 $Y=0.51
+ $X2=8.095 $Y2=0.51
r41 12 13 145.28 $w=1.7e-07 $l=1.7e-07 $layer=licon1_POLY $count=1 $X=8.24
+ $Y=1.16 $X2=8.24 $Y2=1.16
r42 9 12 6.18905 $w=2.68e-07 $l=1.45e-07 $layer=LI1_cond $X=8.095 $Y=1.19
+ $X2=8.24 $Y2=1.19
r43 8 9 3.44395 $w=1.7e-07 $l=1.35e-07 $layer=LI1_cond $X=8.095 $Y=1.055
+ $X2=8.095 $Y2=1.19
r44 7 21 2.50919 $w=1.7e-07 $l=1.15e-07 $layer=LI1_cond $X=8.095 $Y=0.625
+ $X2=8.095 $Y2=0.51
r45 7 8 28.0535 $w=1.68e-07 $l=4.3e-07 $layer=LI1_cond $X=8.095 $Y=0.625
+ $X2=8.095 $Y2=1.055
r46 4 13 39.2931 $w=2.55e-07 $l=1.79374e-07 $layer=POLY_cond $X=8.27 $Y=0.995
+ $X2=8.24 $Y2=1.16
r47 4 6 139.78 $w=1.5e-07 $l=4.35e-07 $layer=POLY_cond $X=8.27 $Y=0.995 $X2=8.27
+ $Y2=0.56
r48 1 13 51.486 $w=2.55e-07 $l=2.52488e-07 $layer=POLY_cond $X=8.245 $Y=1.41
+ $X2=8.24 $Y2=1.16
r49 1 3 153.972 $w=1.8e-07 $l=5.75e-07 $layer=POLY_cond $X=8.245 $Y=1.41
+ $X2=8.245 $Y2=1.985
.ends

.subckt PM_SKY130_FD_SC_HDLL__MUXB16TO1_1%D[11] 1 3 4 6 8 12 15 21
c41 8 0 1.78369e-19 $X=8.095 $Y=4.815
c42 4 0 2.31671e-19 $X=8.27 $Y=4.445
r43 15 21 2.25478 $w=2.28e-07 $l=4.5e-08 $layer=LI1_cond $X=8.05 $Y=4.93
+ $X2=8.095 $Y2=4.93
r44 12 13 145.28 $w=1.7e-07 $l=1.7e-07 $layer=licon1_POLY $count=1 $X=8.24
+ $Y=4.28 $X2=8.24 $Y2=4.28
r45 9 12 6.18905 $w=2.68e-07 $l=1.45e-07 $layer=LI1_cond $X=8.095 $Y=4.25
+ $X2=8.24 $Y2=4.25
r46 8 21 2.50919 $w=1.7e-07 $l=1.15e-07 $layer=LI1_cond $X=8.095 $Y=4.815
+ $X2=8.095 $Y2=4.93
r47 7 9 3.44395 $w=1.7e-07 $l=1.35e-07 $layer=LI1_cond $X=8.095 $Y=4.385
+ $X2=8.095 $Y2=4.25
r48 7 8 28.0535 $w=1.68e-07 $l=4.3e-07 $layer=LI1_cond $X=8.095 $Y=4.385
+ $X2=8.095 $Y2=4.815
r49 4 13 39.2931 $w=2.55e-07 $l=1.79374e-07 $layer=POLY_cond $X=8.27 $Y=4.445
+ $X2=8.24 $Y2=4.28
r50 4 6 139.78 $w=1.5e-07 $l=4.35e-07 $layer=POLY_cond $X=8.27 $Y=4.445 $X2=8.27
+ $Y2=4.88
r51 1 13 51.486 $w=2.55e-07 $l=2.52488e-07 $layer=POLY_cond $X=8.245 $Y=4.03
+ $X2=8.24 $Y2=4.28
r52 1 3 153.972 $w=1.8e-07 $l=5.75e-07 $layer=POLY_cond $X=8.245 $Y=4.03
+ $X2=8.245 $Y2=3.455
.ends

.subckt PM_SKY130_FD_SC_HDLL__MUXB16TO1_1%D[4] 1 3 4 6 8 13 15
c38 8 0 1.78369e-19 $X=8.925 $Y=1.055
c39 4 0 2.31671e-19 $X=8.775 $Y=1.41
r40 15 18 2.25478 $w=2.28e-07 $l=4.5e-08 $layer=LI1_cond $X=8.97 $Y=0.51
+ $X2=8.925 $Y2=0.51
r41 10 13 6.18905 $w=2.68e-07 $l=1.45e-07 $layer=LI1_cond $X=8.78 $Y=1.19
+ $X2=8.925 $Y2=1.19
r42 10 11 145.28 $w=1.7e-07 $l=1.7e-07 $layer=licon1_POLY $count=1 $X=8.78
+ $Y=1.16 $X2=8.78 $Y2=1.16
r43 8 13 3.44395 $w=1.7e-07 $l=1.35e-07 $layer=LI1_cond $X=8.925 $Y=1.055
+ $X2=8.925 $Y2=1.19
r44 7 18 2.50919 $w=1.7e-07 $l=1.15e-07 $layer=LI1_cond $X=8.925 $Y=0.625
+ $X2=8.925 $Y2=0.51
r45 7 8 28.0535 $w=1.68e-07 $l=4.3e-07 $layer=LI1_cond $X=8.925 $Y=0.625
+ $X2=8.925 $Y2=1.055
r46 4 11 51.486 $w=2.55e-07 $l=2.52488e-07 $layer=POLY_cond $X=8.775 $Y=1.41
+ $X2=8.78 $Y2=1.16
r47 4 6 153.972 $w=1.8e-07 $l=5.75e-07 $layer=POLY_cond $X=8.775 $Y=1.41
+ $X2=8.775 $Y2=1.985
r48 1 11 39.2931 $w=2.55e-07 $l=1.79374e-07 $layer=POLY_cond $X=8.75 $Y=0.995
+ $X2=8.78 $Y2=1.16