* Copyright 2020 The SkyWater PDK Authors
*
* Licensed under the Apache License, Version 2.0 (the "License");
* you may not use this file except in compliance with the License.
* You may obtain a copy of the License at
*
*     https://www.apache.org/licenses/LICENSE-2.0
*
* Unless required by applicable law or agreed to in writing, software
* distributed under the License is distributed on an "AS IS" BASIS,
* WITHOUT WARRANTIES OR CONDITIONS OF ANY KIND, either express or implied.
* See the License for the specific language governing permissions and
* limitations under the License.
*
* SPDX-License-Identifier: Apache-2.0


.subckt sky130_fd_sc_hdll__clkmux2_2 VGND VPWR S A1 A0 X VPB VNB
X0 VGND S a_337_47# VNB sky130_fd_pr__nfet_01v8 w=420000u l=150000u
X1 X a_79_199# VGND VNB sky130_fd_pr__nfet_01v8 w=520000u l=150000u
X2 a_337_47# A1 a_79_199# VNB sky130_fd_pr__nfet_01v8 w=420000u l=150000u
X3 a_79_199# A1 a_691_309# VPB sky130_fd_pr__pfet_01v8_hvt w=940000u l=180000u
X4 VGND a_79_199# X VNB sky130_fd_pr__nfet_01v8 w=520000u l=150000u
X5 VPWR a_79_199# X VPB sky130_fd_pr__pfet_01v8_hvt w=1e+06u l=180000u
X6 a_691_309# a_741_21# VPWR VPB sky130_fd_pr__pfet_01v8_hvt w=940000u l=180000u
X7 VPWR S a_335_309# VPB sky130_fd_pr__pfet_01v8_hvt w=940000u l=180000u
X8 VPWR S a_741_21# VPB sky130_fd_pr__pfet_01v8_hvt w=940000u l=180000u
X9 a_79_199# A0 a_570_47# VNB sky130_fd_pr__nfet_01v8 w=420000u l=150000u
X10 a_335_309# A0 a_79_199# VPB sky130_fd_pr__pfet_01v8_hvt w=940000u l=180000u
X11 a_570_47# a_741_21# VGND VNB sky130_fd_pr__nfet_01v8 w=420000u l=150000u
X12 X a_79_199# VPWR VPB sky130_fd_pr__pfet_01v8_hvt w=1e+06u l=180000u
X13 VGND S a_741_21# VNB sky130_fd_pr__nfet_01v8 w=520000u l=150000u
.ends
.subckt sky130_fd_sc_hdll__muxb4to1_4 VPB VNB VGND VPWR Z S[0] S[1] D[1] D[2] S[2]
+ S[3] D[3] D[0]
X0 VGND D[0] a_119_47# VNB sky130_fd_pr__nfet_01v8 w=650000u l=150000u
X1 a_119_47# S[0] Z VNB sky130_fd_pr__nfet_01v8 w=520000u l=150000u
X2 VGND D[2] a_2695_47# VNB sky130_fd_pr__nfet_01v8 w=650000u l=150000u
X3 a_2695_47# D[2] VGND VNB sky130_fd_pr__nfet_01v8 w=650000u l=150000u
X4 a_1643_311# a_1430_325# Z VPB sky130_fd_pr__pfet_01v8_hvt w=820000u l=180000u
X5 VPWR D[2] a_2693_297# VPB sky130_fd_pr__pfet_01v8_hvt w=1e+06u l=180000u
X6 a_559_265# S[0] VGND VNB sky130_fd_pr__nfet_01v8 w=420000u l=150000u
X7 a_3135_265# S[2] VGND VNB sky130_fd_pr__nfet_01v8 w=420000u l=150000u
X8 Z S[0] a_119_47# VNB sky130_fd_pr__nfet_01v8 w=520000u l=150000u
X9 Z a_3135_265# a_2693_297# VPB sky130_fd_pr__pfet_01v8_hvt w=820000u l=180000u
X10 a_4219_311# a_4006_325# Z VPB sky130_fd_pr__pfet_01v8_hvt w=820000u l=180000u
X11 a_1693_66# D[1] VGND VNB sky130_fd_pr__nfet_01v8 w=650000u l=150000u
X12 VGND D[2] a_2695_47# VNB sky130_fd_pr__nfet_01v8 w=650000u l=150000u
X13 a_4269_66# D[3] VGND VNB sky130_fd_pr__nfet_01v8 w=650000u l=150000u
X14 a_1643_311# D[1] VPWR VPB sky130_fd_pr__pfet_01v8_hvt w=1e+06u l=180000u
X15 a_3135_265# S[2] VPWR VPB sky130_fd_pr__pfet_01v8_hvt w=820000u l=180000u
X16 VGND S[3] a_4006_325# VNB sky130_fd_pr__nfet_01v8 w=420000u l=150000u
X17 Z S[3] a_4269_66# VNB sky130_fd_pr__nfet_01v8 w=520000u l=150000u
X18 a_1430_325# S[1] VPWR VPB sky130_fd_pr__pfet_01v8_hvt w=820000u l=180000u
X19 Z S[3] a_4269_66# VNB sky130_fd_pr__nfet_01v8 w=520000u l=150000u
X20 VPWR D[0] a_117_297# VPB sky130_fd_pr__pfet_01v8_hvt w=1e+06u l=180000u
X21 VPWR S[2] a_3135_265# VPB sky130_fd_pr__pfet_01v8_hvt w=820000u l=180000u
X22 VGND S[0] a_559_265# VNB sky130_fd_pr__nfet_01v8 w=420000u l=150000u
X23 VGND D[1] a_1693_66# VNB sky130_fd_pr__nfet_01v8 w=650000u l=150000u
X24 a_1693_66# D[1] VGND VNB sky130_fd_pr__nfet_01v8 w=650000u l=150000u
X25 a_4006_325# S[3] VGND VNB sky130_fd_pr__nfet_01v8 w=420000u l=150000u
X26 VGND D[3] a_4269_66# VNB sky130_fd_pr__nfet_01v8 w=650000u l=150000u
X27 Z a_559_265# a_117_297# VPB sky130_fd_pr__pfet_01v8_hvt w=820000u l=180000u
X28 a_117_297# D[0] VPWR VPB sky130_fd_pr__pfet_01v8_hvt w=1e+06u l=180000u
X29 a_559_265# S[0] VPWR VPB sky130_fd_pr__pfet_01v8_hvt w=820000u l=180000u
X30 Z a_4006_325# a_4219_311# VPB sky130_fd_pr__pfet_01v8_hvt w=820000u l=180000u
X31 a_1693_66# S[1] Z VNB sky130_fd_pr__nfet_01v8 w=520000u l=150000u
X32 VPWR D[3] a_4219_311# VPB sky130_fd_pr__pfet_01v8_hvt w=1e+06u l=180000u
X33 a_4269_66# S[3] Z VNB sky130_fd_pr__nfet_01v8 w=520000u l=150000u
X34 VPWR S[3] a_4006_325# VPB sky130_fd_pr__pfet_01v8_hvt w=820000u l=180000u
X35 VGND D[1] a_1693_66# VNB sky130_fd_pr__nfet_01v8 w=650000u l=150000u
X36 VPWR D[0] a_117_297# VPB sky130_fd_pr__pfet_01v8_hvt w=1e+06u l=180000u
X37 Z a_1430_325# a_1643_311# VPB sky130_fd_pr__pfet_01v8_hvt w=820000u l=180000u
X38 Z S[2] a_2695_47# VNB sky130_fd_pr__nfet_01v8 w=520000u l=150000u
X39 a_4219_311# D[3] VPWR VPB sky130_fd_pr__pfet_01v8_hvt w=1e+06u l=180000u
X40 a_2693_297# D[2] VPWR VPB sky130_fd_pr__pfet_01v8_hvt w=1e+06u l=180000u
X41 VGND S[1] a_1430_325# VNB sky130_fd_pr__nfet_01v8 w=420000u l=150000u
X42 a_1643_311# a_1430_325# Z VPB sky130_fd_pr__pfet_01v8_hvt w=820000u l=180000u
X43 a_2693_297# a_3135_265# Z VPB sky130_fd_pr__pfet_01v8_hvt w=820000u l=180000u
X44 Z S[2] a_2695_47# VNB sky130_fd_pr__nfet_01v8 w=520000u l=150000u
X45 VGND S[2] a_3135_265# VNB sky130_fd_pr__nfet_01v8 w=420000u l=150000u
X46 a_119_47# S[0] Z VNB sky130_fd_pr__nfet_01v8 w=520000u l=150000u
X47 VPWR D[1] a_1643_311# VPB sky130_fd_pr__pfet_01v8_hvt w=1e+06u l=180000u
X48 a_4269_66# S[3] Z VNB sky130_fd_pr__nfet_01v8 w=520000u l=150000u
X49 a_119_47# D[0] VGND VNB sky130_fd_pr__nfet_01v8 w=650000u l=150000u
X50 VPWR D[2] a_2693_297# VPB sky130_fd_pr__pfet_01v8_hvt w=1e+06u l=180000u
X51 a_2695_47# S[2] Z VNB sky130_fd_pr__nfet_01v8 w=520000u l=150000u
X52 VPWR S[1] a_1430_325# VPB sky130_fd_pr__pfet_01v8_hvt w=820000u l=180000u
X53 VGND D[0] a_119_47# VNB sky130_fd_pr__nfet_01v8 w=650000u l=150000u
X54 a_2695_47# S[2] Z VNB sky130_fd_pr__nfet_01v8 w=520000u l=150000u
X55 Z S[0] a_119_47# VNB sky130_fd_pr__nfet_01v8 w=520000u l=150000u
X56 VGND D[3] a_4269_66# VNB sky130_fd_pr__nfet_01v8 w=650000u l=150000u
X57 a_117_297# a_559_265# Z VPB sky130_fd_pr__pfet_01v8_hvt w=820000u l=180000u
X58 a_119_47# D[0] VGND VNB sky130_fd_pr__nfet_01v8 w=650000u l=150000u
X59 Z S[1] a_1693_66# VNB sky130_fd_pr__nfet_01v8 w=520000u l=150000u
X60 VPWR S[0] a_559_265# VPB sky130_fd_pr__pfet_01v8_hvt w=820000u l=180000u
X61 Z a_1430_325# a_1643_311# VPB sky130_fd_pr__pfet_01v8_hvt w=820000u l=180000u
X62 a_4219_311# a_4006_325# Z VPB sky130_fd_pr__pfet_01v8_hvt w=820000u l=180000u
X63 Z S[1] a_1693_66# VNB sky130_fd_pr__nfet_01v8 w=520000u l=150000u
X64 a_117_297# D[0] VPWR VPB sky130_fd_pr__pfet_01v8_hvt w=1e+06u l=180000u
X65 a_2693_297# D[2] VPWR VPB sky130_fd_pr__pfet_01v8_hvt w=1e+06u l=180000u
X66 Z a_4006_325# a_4219_311# VPB sky130_fd_pr__pfet_01v8_hvt w=820000u l=180000u
X67 VPWR D[3] a_4219_311# VPB sky130_fd_pr__pfet_01v8_hvt w=1e+06u l=180000u
X68 a_4269_66# D[3] VGND VNB sky130_fd_pr__nfet_01v8 w=650000u l=150000u
X69 a_1430_325# S[1] VGND VNB sky130_fd_pr__nfet_01v8 w=420000u l=150000u
X70 a_4219_311# D[3] VPWR VPB sky130_fd_pr__pfet_01v8_hvt w=1e+06u l=180000u
X71 Z a_3135_265# a_2693_297# VPB sky130_fd_pr__pfet_01v8_hvt w=820000u l=180000u
X72 a_1693_66# S[1] Z VNB sky130_fd_pr__nfet_01v8 w=520000u l=150000u
X73 Z a_559_265# a_117_297# VPB sky130_fd_pr__pfet_01v8_hvt w=820000u l=180000u
X74 a_1643_311# D[1] VPWR VPB sky130_fd_pr__pfet_01v8_hvt w=1e+06u l=180000u
X75 a_4006_325# S[3] VPWR VPB sky130_fd_pr__pfet_01v8_hvt w=820000u l=180000u
X76 a_2695_47# D[2] VGND VNB sky130_fd_pr__nfet_01v8 w=650000u l=150000u
X77 a_2693_297# a_3135_265# Z VPB sky130_fd_pr__pfet_01v8_hvt w=820000u l=180000u
X78 a_117_297# a_559_265# Z VPB sky130_fd_pr__pfet_01v8_hvt w=820000u l=180000u
X79 VPWR D[1] a_1643_311# VPB sky130_fd_pr__pfet_01v8_hvt w=1e+06u l=180000u
.ends
.subckt sky130_fd_sc_hdll__muxb16to1_1 Z VGND VPWR VNB VPB D[0] S[12] S[13] S[8] S[9]
+ S[10] S[11] S[14] S[15] D[12] D[9] D[10] D[13] D[14] D[15] D[8] D[11] S[0] S[1]
+ D[1] D[2] S[2] S[3] D[4] S[4] S[5] D[5] D[6] S[6] S[7] D[7] D[3]
X0 VGND S[11] a_1361_937# VNB sky130_fd_pr__nfet_01v8 w=520000u l=150000u
X1 VPWR D[8] a_117_591# VPB sky130_fd_pr__pfet_01v8_hvt w=1e+06u l=180000u
X2 VPWR S[1] a_533_47# VPB sky130_fd_pr__pfet_01v8_hvt w=1e+06u l=180000u
X3 a_109_911# S[8] Z VNB sky130_fd_pr__nfet_01v8 w=520000u l=150000u
X4 VGND D[2] a_937_47# VNB sky130_fd_pr__nfet_01v8 w=650000u l=150000u
X5 a_1840_265# S[4] VPWR VPB sky130_fd_pr__pfet_01v8_hvt w=1e+06u l=180000u
X6 a_1012_265# S[2] VGND VNB sky130_fd_pr__nfet_01v8 w=520000u l=150000u
X7 VGND D[4] a_1765_47# VNB sky130_fd_pr__nfet_01v8 w=650000u l=150000u
X8 a_3218_333# D[7] VPWR VPB sky130_fd_pr__pfet_01v8_hvt w=1e+06u l=180000u
X9 VGND D[10] a_937_911# VNB sky130_fd_pr__nfet_01v8 w=650000u l=150000u
X10 a_2402_47# D[5] VGND VNB sky130_fd_pr__nfet_01v8 w=650000u l=150000u
X11 VGND S[7] a_3017_47# VNB sky130_fd_pr__nfet_01v8 w=520000u l=150000u
X12 VPWR S[13] a_2189_937# VPB sky130_fd_pr__pfet_01v8_hvt w=1e+06u l=180000u
X13 VPWR D[4] a_1773_297# VPB sky130_fd_pr__pfet_01v8_hvt w=1e+06u l=180000u
X14 VPWR D[10] a_945_591# VPB sky130_fd_pr__pfet_01v8_hvt w=1e+06u l=180000u
X15 VPWR S[15] a_3017_937# VPB sky130_fd_pr__pfet_01v8_hvt w=1e+06u l=180000u
X16 Z S[7] a_3230_47# VNB sky130_fd_pr__nfet_01v8 w=520000u l=150000u
X17 a_937_911# S[10] Z VNB sky130_fd_pr__nfet_01v8 w=520000u l=150000u
X18 a_2390_333# D[5] VPWR VPB sky130_fd_pr__pfet_01v8_hvt w=1e+06u l=180000u
X19 a_1574_47# D[3] VGND VNB sky130_fd_pr__nfet_01v8 w=650000u l=150000u
X20 a_1765_47# S[4] Z VNB sky130_fd_pr__nfet_01v8 w=520000u l=150000u
X21 a_1012_265# S[2] VPWR VPB sky130_fd_pr__pfet_01v8_hvt w=1e+06u l=180000u
X22 a_1765_911# S[12] Z VNB sky130_fd_pr__nfet_01v8 w=520000u l=150000u
X23 VPWR S[11] a_1361_937# VPB sky130_fd_pr__pfet_01v8_hvt w=1e+06u l=180000u
X24 VPWR D[0] a_117_297# VPB sky130_fd_pr__pfet_01v8_hvt w=1e+06u l=180000u
X25 a_109_47# S[0] Z VNB sky130_fd_pr__nfet_01v8 w=520000u l=150000u
X26 VGND S[13] a_2189_937# VNB sky130_fd_pr__nfet_01v8 w=520000u l=150000u
X27 Z a_3017_937# a_3218_591# VPB sky130_fd_pr__pfet_01v8_hvt w=820000u l=180000u
X28 a_2593_47# S[6] Z VNB sky130_fd_pr__nfet_01v8 w=520000u l=150000u
X29 VGND S[9] a_533_937# VNB sky130_fd_pr__nfet_01v8 w=520000u l=150000u
X30 a_117_591# a_184_793# Z VPB sky130_fd_pr__pfet_01v8_hvt w=820000u l=180000u
X31 Z a_533_937# a_734_591# VPB sky130_fd_pr__pfet_01v8_hvt w=820000u l=180000u
X32 VGND S[15] a_3017_937# VNB sky130_fd_pr__nfet_01v8 w=520000u l=150000u
X33 a_1562_591# D[11] VPWR VPB sky130_fd_pr__pfet_01v8_hvt w=1e+06u l=180000u
X34 VPWR D[2] a_945_297# VPB sky130_fd_pr__pfet_01v8_hvt w=1e+06u l=180000u
X35 VPWR S[5] a_2189_47# VPB sky130_fd_pr__pfet_01v8_hvt w=1e+06u l=180000u
X36 a_2668_265# S[6] VGND VNB sky130_fd_pr__nfet_01v8 w=520000u l=150000u
X37 Z S[13] a_2402_937# VNB sky130_fd_pr__nfet_01v8 w=520000u l=150000u
X38 VPWR S[7] a_3017_47# VPB sky130_fd_pr__pfet_01v8_hvt w=1e+06u l=180000u
X39 VGND D[8] a_109_911# VNB sky130_fd_pr__nfet_01v8 w=650000u l=150000u
X40 a_3230_937# D[15] VGND VNB sky130_fd_pr__nfet_01v8 w=650000u l=150000u
X41 Z a_2189_937# a_2390_591# VPB sky130_fd_pr__pfet_01v8_hvt w=820000u l=180000u
X42 a_2601_591# a_2668_793# Z VPB sky130_fd_pr__pfet_01v8_hvt w=820000u l=180000u
X43 VPWR S[3] a_1361_47# VPB sky130_fd_pr__pfet_01v8_hvt w=1e+06u l=180000u
X44 Z a_3017_47# a_3218_333# VPB sky130_fd_pr__pfet_01v8_hvt w=820000u l=180000u
X45 Z S[11] a_1574_937# VNB sky130_fd_pr__nfet_01v8 w=520000u l=150000u
X46 a_117_297# a_184_265# Z VPB sky130_fd_pr__pfet_01v8_hvt w=820000u l=180000u
X47 Z a_533_47# a_734_333# VPB sky130_fd_pr__pfet_01v8_hvt w=820000u l=180000u
X48 a_184_265# S[0] VGND VNB sky130_fd_pr__nfet_01v8 w=520000u l=150000u
X49 VGND S[3] a_1361_47# VNB sky130_fd_pr__nfet_01v8 w=520000u l=150000u
X50 a_1840_793# S[12] VGND VNB sky130_fd_pr__nfet_01v8 w=520000u l=150000u
X51 VGND D[14] a_2593_911# VNB sky130_fd_pr__nfet_01v8 w=650000u l=150000u
X52 a_2593_911# S[14] Z VNB sky130_fd_pr__nfet_01v8 w=520000u l=150000u
X53 VGND S[1] a_533_47# VNB sky130_fd_pr__nfet_01v8 w=520000u l=150000u
X54 a_184_793# S[8] VGND VNB sky130_fd_pr__nfet_01v8 w=520000u l=150000u
X55 a_2402_937# D[13] VGND VNB sky130_fd_pr__nfet_01v8 w=650000u l=150000u
X56 a_2668_793# S[14] VPWR VPB sky130_fd_pr__pfet_01v8_hvt w=1e+06u l=180000u
X57 a_734_591# D[9] VPWR VPB sky130_fd_pr__pfet_01v8_hvt w=1e+06u l=180000u
X58 a_945_591# a_1012_793# Z VPB sky130_fd_pr__pfet_01v8_hvt w=820000u l=180000u
X59 a_2668_793# S[14] VGND VNB sky130_fd_pr__nfet_01v8 w=520000u l=150000u
X60 Z a_1361_937# a_1562_591# VPB sky130_fd_pr__pfet_01v8_hvt w=820000u l=180000u
X61 a_1562_333# D[3] VPWR VPB sky130_fd_pr__pfet_01v8_hvt w=1e+06u l=180000u
X62 a_1773_591# a_1840_793# Z VPB sky130_fd_pr__pfet_01v8_hvt w=820000u l=180000u
X63 Z a_2189_47# a_2390_333# VPB sky130_fd_pr__pfet_01v8_hvt w=820000u l=180000u
X64 VGND S[5] a_2189_47# VNB sky130_fd_pr__nfet_01v8 w=520000u l=150000u
X65 a_746_937# D[9] VGND VNB sky130_fd_pr__nfet_01v8 w=650000u l=150000u
X66 a_2601_297# a_2668_265# Z VPB sky130_fd_pr__pfet_01v8_hvt w=820000u l=180000u
X67 a_1012_793# S[10] VGND VNB sky130_fd_pr__nfet_01v8 w=520000u l=150000u
X68 a_184_793# S[8] VPWR VPB sky130_fd_pr__pfet_01v8_hvt w=1e+06u l=180000u
X69 VGND D[12] a_1765_911# VNB sky130_fd_pr__nfet_01v8 w=650000u l=150000u
X70 Z S[15] a_3230_937# VNB sky130_fd_pr__nfet_01v8 w=520000u l=150000u
X71 Z S[5] a_2402_47# VNB sky130_fd_pr__nfet_01v8 w=520000u l=150000u
X72 a_1574_937# D[11] VGND VNB sky130_fd_pr__nfet_01v8 w=650000u l=150000u
X73 VPWR D[14] a_2601_591# VPB sky130_fd_pr__pfet_01v8_hvt w=1e+06u l=180000u
X74 a_945_297# a_1012_265# Z VPB sky130_fd_pr__pfet_01v8_hvt w=820000u l=180000u
X75 VGND D[0] a_109_47# VNB sky130_fd_pr__nfet_01v8 w=650000u l=150000u
X76 Z a_1361_47# a_1562_333# VPB sky130_fd_pr__pfet_01v8_hvt w=820000u l=180000u
X77 a_937_47# S[2] Z VNB sky130_fd_pr__nfet_01v8 w=520000u l=150000u
X78 VPWR S[9] a_533_937# VPB sky130_fd_pr__pfet_01v8_hvt w=1e+06u l=180000u
X79 a_3218_591# D[15] VPWR VPB sky130_fd_pr__pfet_01v8_hvt w=1e+06u l=180000u
X80 a_1773_297# a_1840_265# Z VPB sky130_fd_pr__pfet_01v8_hvt w=820000u l=180000u
X81 Z S[3] a_1574_47# VNB sky130_fd_pr__nfet_01v8 w=520000u l=150000u
X82 a_2668_265# S[6] VPWR VPB sky130_fd_pr__pfet_01v8_hvt w=1e+06u l=180000u
X83 a_1840_793# S[12] VPWR VPB sky130_fd_pr__pfet_01v8_hvt w=1e+06u l=180000u
X84 Z S[1] a_746_47# VNB sky130_fd_pr__nfet_01v8 w=520000u l=150000u
X85 VPWR D[12] a_1773_591# VPB sky130_fd_pr__pfet_01v8_hvt w=1e+06u l=180000u
X86 a_734_333# D[1] VPWR VPB sky130_fd_pr__pfet_01v8_hvt w=1e+06u l=180000u
X87 Z S[9] a_746_937# VNB sky130_fd_pr__nfet_01v8 w=520000u l=150000u
X88 a_2390_591# D[13] VPWR VPB sky130_fd_pr__pfet_01v8_hvt w=1e+06u l=180000u
X89 VGND D[6] a_2593_47# VNB sky130_fd_pr__nfet_01v8 w=650000u l=150000u
X90 a_1012_793# S[10] VPWR VPB sky130_fd_pr__pfet_01v8_hvt w=1e+06u l=180000u
X91 a_184_265# S[0] VPWR VPB sky130_fd_pr__pfet_01v8_hvt w=1e+06u l=180000u
X92 a_746_47# D[1] VGND VNB sky130_fd_pr__nfet_01v8 w=650000u l=150000u
X93 a_1840_265# S[4] VGND VNB sky130_fd_pr__nfet_01v8 w=520000u l=150000u
X94 a_3230_47# D[7] VGND VNB sky130_fd_pr__nfet_01v8 w=650000u l=150000u
X95 VPWR D[6] a_2601_297# VPB sky130_fd_pr__pfet_01v8_hvt w=1e+06u l=180000u
.ends
.subckt sky130_fd_sc_hdll__muxb4to1_2 VGND VPWR Z VNB VPB S[1] S[2] S[3] D[1] D[0]
+ D[2] D[3] S[0]
X0 a_1315_47# D[2] VGND VNB sky130_fd_pr__nfet_01v8 w=650000u l=150000u
X1 a_2112_333# a_1989_47# Z VPB sky130_fd_pr__pfet_01v8_hvt w=820000u l=180000u
X2 Z a_278_265# a_27_297# VPB sky130_fd_pr__pfet_01v8_hvt w=820000u l=180000u
X3 Z S[0] a_27_47# VNB sky130_fd_pr__nfet_01v8 w=520000u l=150000u
X4 a_845_69# S[1] Z VNB sky130_fd_pr__nfet_01v8 w=520000u l=150000u
X5 VPWR D[3] a_2112_333# VPB sky130_fd_pr__pfet_01v8_hvt w=1e+06u l=180000u
X6 a_27_297# D[0] VPWR VPB sky130_fd_pr__pfet_01v8_hvt w=1e+06u l=180000u
X7 VGND D[1] a_845_69# VNB sky130_fd_pr__nfet_01v8 w=650000u l=150000u
X8 VGND D[3] a_2133_69# VNB sky130_fd_pr__nfet_01v8 w=650000u l=150000u
X9 a_1566_265# S[2] VPWR VPB sky130_fd_pr__pfet_01v8_hvt w=1e+06u l=180000u
X10 Z a_701_47# a_824_333# VPB sky130_fd_pr__pfet_01v8_hvt w=820000u l=180000u
X11 a_845_69# D[1] VGND VNB sky130_fd_pr__nfet_01v8 w=650000u l=150000u
X12 a_2133_69# D[3] VGND VNB sky130_fd_pr__nfet_01v8 w=650000u l=150000u
X13 VPWR S[1] a_701_47# VPB sky130_fd_pr__pfet_01v8_hvt w=1e+06u l=180000u
X14 a_824_333# a_701_47# Z VPB sky130_fd_pr__pfet_01v8_hvt w=820000u l=180000u
X15 a_27_297# a_278_265# Z VPB sky130_fd_pr__pfet_01v8_hvt w=820000u l=180000u
X16 Z S[2] a_1315_47# VNB sky130_fd_pr__nfet_01v8 w=520000u l=150000u
X17 a_27_47# S[0] Z VNB sky130_fd_pr__nfet_01v8 w=520000u l=150000u
X18 VGND S[1] a_701_47# VNB sky130_fd_pr__nfet_01v8 w=520000u l=150000u
X19 a_278_265# S[0] VPWR VPB sky130_fd_pr__pfet_01v8_hvt w=1e+06u l=180000u
X20 a_2112_333# D[3] VPWR VPB sky130_fd_pr__pfet_01v8_hvt w=1e+06u l=180000u
X21 VPWR D[1] a_824_333# VPB sky130_fd_pr__pfet_01v8_hvt w=1e+06u l=180000u
X22 VPWR D[2] a_1315_297# VPB sky130_fd_pr__pfet_01v8_hvt w=1e+06u l=180000u
X23 VGND D[0] a_27_47# VNB sky130_fd_pr__nfet_01v8 w=650000u l=150000u
X24 a_27_47# D[0] VGND VNB sky130_fd_pr__nfet_01v8 w=650000u l=150000u
X25 a_1315_47# S[2] Z VNB sky130_fd_pr__nfet_01v8 w=520000u l=150000u
X26 Z S[3] a_2133_69# VNB sky130_fd_pr__nfet_01v8 w=520000u l=150000u
X27 a_824_333# D[1] VPWR VPB sky130_fd_pr__pfet_01v8_hvt w=1e+06u l=180000u
X28 a_1315_297# D[2] VPWR VPB sky130_fd_pr__pfet_01v8_hvt w=1e+06u l=180000u
X29 VGND D[2] a_1315_47# VNB sky130_fd_pr__nfet_01v8 w=650000u l=150000u
X30 a_2133_69# S[3] Z VNB sky130_fd_pr__nfet_01v8 w=520000u l=150000u
X31 VPWR D[0] a_27_297# VPB sky130_fd_pr__pfet_01v8_hvt w=1e+06u l=180000u
X32 Z S[1] a_845_69# VNB sky130_fd_pr__nfet_01v8 w=520000u l=150000u
X33 VGND S[3] a_1989_47# VNB sky130_fd_pr__nfet_01v8 w=520000u l=150000u
X34 a_278_265# S[0] VGND VNB sky130_fd_pr__nfet_01v8 w=520000u l=150000u
X35 Z a_1566_265# a_1315_297# VPB sky130_fd_pr__pfet_01v8_hvt w=820000u l=180000u
X36 VPWR S[3] a_1989_47# VPB sky130_fd_pr__pfet_01v8_hvt w=1e+06u l=180000u
X37 a_1315_297# a_1566_265# Z VPB sky130_fd_pr__pfet_01v8_hvt w=820000u l=180000u
X38 a_1566_265# S[2] VGND VNB sky130_fd_pr__nfet_01v8 w=520000u l=150000u
X39 Z a_1989_47# a_2112_333# VPB sky130_fd_pr__pfet_01v8_hvt w=820000u l=180000u
.ends
.subckt sky130_fd_sc_hdll__muxb8to1_1 VGND Z VPWR VNB VPB D[0] S[0] S[1] D[1] D[2]
+ S[2] S[3] D[4] S[4] S[5] D[5] D[6] S[6] S[7] D[7] D[3]
X0 VPWR S[1] a_533_47# VPB sky130_fd_pr__pfet_01v8_hvt w=1e+06u l=180000u
X1 VGND D[2] a_937_47# VNB sky130_fd_pr__nfet_01v8 w=650000u l=150000u
X2 a_1840_265# S[4] VPWR VPB sky130_fd_pr__pfet_01v8_hvt w=1e+06u l=180000u
X3 a_1012_265# S[2] VGND VNB sky130_fd_pr__nfet_01v8 w=520000u l=150000u
X4 VGND D[4] a_1765_47# VNB sky130_fd_pr__nfet_01v8 w=650000u l=150000u
X5 a_3218_333# D[7] VPWR VPB sky130_fd_pr__pfet_01v8_hvt w=1e+06u l=180000u
X6 a_2402_47# D[5] VGND VNB sky130_fd_pr__nfet_01v8 w=650000u l=150000u
X7 VGND S[7] a_3017_47# VNB sky130_fd_pr__nfet_01v8 w=520000u l=150000u
X8 VPWR D[4] a_1773_297# VPB sky130_fd_pr__pfet_01v8_hvt w=1e+06u l=180000u
X9 Z S[7] a_3230_47# VNB sky130_fd_pr__nfet_01v8 w=520000u l=150000u
X10 a_2390_333# D[5] VPWR VPB sky130_fd_pr__pfet_01v8_hvt w=1e+06u l=180000u
X11 a_1574_47# D[3] VGND VNB sky130_fd_pr__nfet_01v8 w=650000u l=150000u
X12 a_1765_47# S[4] Z VNB sky130_fd_pr__nfet_01v8 w=520000u l=150000u
X13 a_1012_265# S[2] VPWR VPB sky130_fd_pr__pfet_01v8_hvt w=1e+06u l=180000u
X14 VPWR D[0] a_117_297# VPB sky130_fd_pr__pfet_01v8_hvt w=1e+06u l=180000u
X15 a_109_47# S[0] Z VNB sky130_fd_pr__nfet_01v8 w=520000u l=150000u
X16 a_2593_47# S[6] Z VNB sky130_fd_pr__nfet_01v8 w=520000u l=150000u
X17 VPWR D[2] a_945_297# VPB sky130_fd_pr__pfet_01v8_hvt w=1e+06u l=180000u
X18 VPWR S[5] a_2189_47# VPB sky130_fd_pr__pfet_01v8_hvt w=1e+06u l=180000u
X19 a_2668_265# S[6] VGND VNB sky130_fd_pr__nfet_01v8 w=520000u l=150000u
X20 VPWR S[7] a_3017_47# VPB sky130_fd_pr__pfet_01v8_hvt w=1e+06u l=180000u
X21 VPWR S[3] a_1361_47# VPB sky130_fd_pr__pfet_01v8_hvt w=1e+06u l=180000u
X22 Z a_3017_47# a_3218_333# VPB sky130_fd_pr__pfet_01v8_hvt w=820000u l=180000u
X23 a_117_297# a_184_265# Z VPB sky130_fd_pr__pfet_01v8_hvt w=820000u l=180000u
X24 Z a_533_47# a_734_333# VPB sky130_fd_pr__pfet_01v8_hvt w=820000u l=180000u
X25 a_184_265# S[0] VGND VNB sky130_fd_pr__nfet_01v8 w=520000u l=150000u
X26 VGND S[3] a_1361_47# VNB sky130_fd_pr__nfet_01v8 w=520000u l=150000u
X27 VGND S[1] a_533_47# VNB sky130_fd_pr__nfet_01v8 w=520000u l=150000u
X28 a_1562_333# D[3] VPWR VPB sky130_fd_pr__pfet_01v8_hvt w=1e+06u l=180000u
X29 Z a_2189_47# a_2390_333# VPB sky130_fd_pr__pfet_01v8_hvt w=820000u l=180000u
X30 VGND S[5] a_2189_47# VNB sky130_fd_pr__nfet_01v8 w=520000u l=150000u
X31 a_2601_297# a_2668_265# Z VPB sky130_fd_pr__pfet_01v8_hvt w=820000u l=180000u
X32 Z S[5] a_2402_47# VNB sky130_fd_pr__nfet_01v8 w=520000u l=150000u
X33 a_945_297# a_1012_265# Z VPB sky130_fd_pr__pfet_01v8_hvt w=820000u l=180000u
X34 VGND D[0] a_109_47# VNB sky130_fd_pr__nfet_01v8 w=650000u l=150000u
X35 Z a_1361_47# a_1562_333# VPB sky130_fd_pr__pfet_01v8_hvt w=820000u l=180000u
X36 a_937_47# S[2] Z VNB sky130_fd_pr__nfet_01v8 w=520000u l=150000u
X37 a_1773_297# a_1840_265# Z VPB sky130_fd_pr__pfet_01v8_hvt w=820000u l=180000u
X38 Z S[3] a_1574_47# VNB sky130_fd_pr__nfet_01v8 w=520000u l=150000u
X39 a_2668_265# S[6] VPWR VPB sky130_fd_pr__pfet_01v8_hvt w=1e+06u l=180000u
X40 Z S[1] a_746_47# VNB sky130_fd_pr__nfet_01v8 w=520000u l=150000u
X41 a_734_333# D[1] VPWR VPB sky130_fd_pr__pfet_01v8_hvt w=1e+06u l=180000u
X42 VGND D[6] a_2593_47# VNB sky130_fd_pr__nfet_01v8 w=650000u l=150000u
X43 a_184_265# S[0] VPWR VPB sky130_fd_pr__pfet_01v8_hvt w=1e+06u l=180000u
X44 a_746_47# D[1] VGND VNB sky130_fd_pr__nfet_01v8 w=650000u l=150000u
X45 a_1840_265# S[4] VGND VNB sky130_fd_pr__nfet_01v8 w=520000u l=150000u
X46 a_3230_47# D[7] VGND VNB sky130_fd_pr__nfet_01v8 w=650000u l=150000u
X47 VPWR D[6] a_2601_297# VPB sky130_fd_pr__pfet_01v8_hvt w=1e+06u l=180000u
.ends
.subckt sky130_fd_sc_hdll__muxb16to1_4 VGND Z VPWR VNB VPB S[6] S[10] D[12] D[13]
+ D[8] D[15] D[10] D[9] D[14] S[14] D[11] S[11] S[8] S[15] S[12] S[9] S[13] D[3] D[0]
+ D[4] D[5] D[2] D[1] D[6] S[2] S[3] S[7] S[0] S[1] S[4] S[5] D[7]
X0 VPWR D[8] a_117_591# VPB sky130_fd_pr__pfet_01v8_hvt w=1e+06u l=180000u
X1 Z S[10] a_2695_911# VNB sky130_fd_pr__nfet_01v8 w=520000u l=150000u
X2 VGND D[13] a_6937_918# VNB sky130_fd_pr__nfet_01v8 w=650000u l=150000u
X3 a_9250_599# S[15] VPWR VPB sky130_fd_pr__pfet_01v8_hvt w=820000u l=180000u
X4 a_2695_47# D[2] VGND VNB sky130_fd_pr__nfet_01v8 w=650000u l=150000u
X5 VGND D[2] a_2695_47# VNB sky130_fd_pr__nfet_01v8 w=650000u l=150000u
X6 VPWR D[7] a_9463_311# VPB sky130_fd_pr__pfet_01v8_hvt w=1e+06u l=180000u
X7 a_6937_918# S[13] Z VNB sky130_fd_pr__nfet_01v8 w=520000u l=150000u
X8 a_119_47# S[0] Z VNB sky130_fd_pr__nfet_01v8 w=520000u l=150000u
X9 VGND D[0] a_119_47# VNB sky130_fd_pr__nfet_01v8 w=650000u l=150000u
X10 VGND D[6] a_7939_47# VNB sky130_fd_pr__nfet_01v8 w=650000u l=150000u
X11 Z a_4006_599# a_4219_613# VPB sky130_fd_pr__pfet_01v8_hvt w=820000u l=180000u
X12 VPWR D[13] a_6887_613# VPB sky130_fd_pr__pfet_01v8_hvt w=1e+06u l=180000u
X13 a_6937_66# D[5] VGND VNB sky130_fd_pr__nfet_01v8 w=650000u l=150000u
X14 Z S[11] a_4269_918# VNB sky130_fd_pr__nfet_01v8 w=520000u l=150000u
X15 Z S[14] a_7939_911# VNB sky130_fd_pr__nfet_01v8 w=520000u l=150000u
X16 VGND S[8] a_559_793# VNB sky130_fd_pr__nfet_01v8 w=420000u l=150000u
X17 a_1643_311# a_1430_325# Z VPB sky130_fd_pr__pfet_01v8_hvt w=820000u l=180000u
X18 Z a_9250_599# a_9463_613# VPB sky130_fd_pr__pfet_01v8_hvt w=820000u l=180000u
X19 a_7939_47# S[6] Z VNB sky130_fd_pr__nfet_01v8 w=520000u l=150000u
X20 VPWR S[8] a_559_793# VPB sky130_fd_pr__pfet_01v8_hvt w=820000u l=180000u
X21 VGND D[6] a_7939_47# VNB sky130_fd_pr__nfet_01v8 w=650000u l=150000u
X22 VGND D[11] a_4269_918# VNB sky130_fd_pr__nfet_01v8 w=650000u l=150000u
X23 VPWR D[12] a_5361_591# VPB sky130_fd_pr__pfet_01v8_hvt w=1e+06u l=180000u
X24 Z a_8379_265# a_7937_297# VPB sky130_fd_pr__pfet_01v8_hvt w=820000u l=180000u
X25 VGND D[8] a_119_911# VNB sky130_fd_pr__nfet_01v8 w=650000u l=150000u
X26 a_4269_918# D[11] VGND VNB sky130_fd_pr__nfet_01v8 w=650000u l=150000u
X27 Z S[12] a_5363_911# VNB sky130_fd_pr__nfet_01v8 w=520000u l=150000u
X28 Z a_3135_793# a_2693_591# VPB sky130_fd_pr__pfet_01v8_hvt w=820000u l=180000u
X29 Z a_5803_793# a_5361_591# VPB sky130_fd_pr__pfet_01v8_hvt w=820000u l=180000u
X30 a_559_265# S[0] VGND VNB sky130_fd_pr__nfet_01v8 w=420000u l=150000u
X31 a_7939_47# D[6] VGND VNB sky130_fd_pr__nfet_01v8 w=650000u l=150000u
X32 a_117_591# D[8] VPWR VPB sky130_fd_pr__pfet_01v8_hvt w=1e+06u l=180000u
X33 VPWR D[11] a_4219_613# VPB sky130_fd_pr__pfet_01v8_hvt w=1e+06u l=180000u
X34 VPWR D[2] a_2693_297# VPB sky130_fd_pr__pfet_01v8_hvt w=1e+06u l=180000u
X35 a_1430_599# S[9] VGND VNB sky130_fd_pr__nfet_01v8 w=420000u l=150000u
X36 a_3135_265# S[2] VGND VNB sky130_fd_pr__nfet_01v8 w=420000u l=150000u
X37 a_4219_311# a_4006_325# Z VPB sky130_fd_pr__pfet_01v8_hvt w=820000u l=180000u
X38 a_7937_297# D[6] VPWR VPB sky130_fd_pr__pfet_01v8_hvt w=1e+06u l=180000u
X39 a_9463_613# a_9250_599# Z VPB sky130_fd_pr__pfet_01v8_hvt w=820000u l=180000u
X40 a_1693_66# D[1] VGND VNB sky130_fd_pr__nfet_01v8 w=650000u l=150000u
X41 VGND D[2] a_2695_47# VNB sky130_fd_pr__nfet_01v8 w=650000u l=150000u
X42 a_9463_311# D[7] VPWR VPB sky130_fd_pr__pfet_01v8_hvt w=1e+06u l=180000u
X43 Z a_3135_265# a_2693_297# VPB sky130_fd_pr__pfet_01v8_hvt w=820000u l=180000u
X44 Z a_559_793# a_117_591# VPB sky130_fd_pr__pfet_01v8_hvt w=820000u l=180000u
X45 a_5361_591# D[12] VPWR VPB sky130_fd_pr__pfet_01v8_hvt w=1e+06u l=180000u
X46 VPWR S[14] a_8379_793# VPB sky130_fd_pr__pfet_01v8_hvt w=820000u l=180000u
X47 Z S[0] a_119_47# VNB sky130_fd_pr__nfet_01v8 w=520000u l=150000u
X48 a_4269_66# D[3] VGND VNB sky130_fd_pr__nfet_01v8 w=650000u l=150000u
X49 Z S[3] a_4269_66# VNB sky130_fd_pr__nfet_01v8 w=520000u l=150000u
X50 a_559_793# S[8] VGND VNB sky130_fd_pr__nfet_01v8 w=420000u l=150000u
X51 a_2693_591# a_3135_793# Z VPB sky130_fd_pr__pfet_01v8_hvt w=820000u l=180000u
X52 VGND S[3] a_4006_325# VNB sky130_fd_pr__nfet_01v8 w=420000u l=150000u
X53 VPWR D[8] a_117_591# VPB sky130_fd_pr__pfet_01v8_hvt w=1e+06u l=180000u
X54 Z S[9] a_1693_918# VNB sky130_fd_pr__nfet_01v8 w=520000u l=150000u
X55 a_4219_613# D[11] VPWR VPB sky130_fd_pr__pfet_01v8_hvt w=1e+06u l=180000u
X56 a_1643_311# D[1] VPWR VPB sky130_fd_pr__pfet_01v8_hvt w=1e+06u l=180000u
X57 a_3135_265# S[2] VPWR VPB sky130_fd_pr__pfet_01v8_hvt w=820000u l=180000u
X58 Z S[7] a_9513_66# VNB sky130_fd_pr__nfet_01v8 w=520000u l=150000u
X59 VGND S[14] a_8379_793# VNB sky130_fd_pr__nfet_01v8 w=420000u l=150000u
X60 a_2695_911# S[10] Z VNB sky130_fd_pr__nfet_01v8 w=520000u l=150000u
X61 a_9463_613# D[15] VPWR VPB sky130_fd_pr__pfet_01v8_hvt w=1e+06u l=180000u
X62 VPWR D[6] a_7937_297# VPB sky130_fd_pr__pfet_01v8_hvt w=1e+06u l=180000u
X63 Z S[4] a_5363_47# VNB sky130_fd_pr__nfet_01v8 w=520000u l=150000u
X64 VGND S[13] a_6674_599# VNB sky130_fd_pr__nfet_01v8 w=420000u l=150000u
X65 a_4269_918# D[11] VGND VNB sky130_fd_pr__nfet_01v8 w=650000u l=150000u
X66 Z S[6] a_7939_47# VNB sky130_fd_pr__nfet_01v8 w=520000u l=150000u
X67 Z S[4] a_5363_47# VNB sky130_fd_pr__nfet_01v8 w=520000u l=150000u
X68 a_117_591# a_559_793# Z VPB sky130_fd_pr__pfet_01v8_hvt w=820000u l=180000u
X69 a_1430_325# S[1] VPWR VPB sky130_fd_pr__pfet_01v8_hvt w=820000u l=180000u
X70 a_6887_311# D[5] VPWR VPB sky130_fd_pr__pfet_01v8_hvt w=1e+06u l=180000u
X71 Z S[3] a_4269_66# VNB sky130_fd_pr__nfet_01v8 w=520000u l=150000u
X72 a_2693_591# D[10] VPWR VPB sky130_fd_pr__pfet_01v8_hvt w=1e+06u l=180000u
X73 VPWR S[2] a_3135_265# VPB sky130_fd_pr__pfet_01v8_hvt w=820000u l=180000u
X74 VGND S[0] a_559_265# VNB sky130_fd_pr__nfet_01v8 w=420000u l=150000u
X75 Z a_6674_599# a_6887_613# VPB sky130_fd_pr__pfet_01v8_hvt w=820000u l=180000u
X76 VPWR D[0] a_117_297# VPB sky130_fd_pr__pfet_01v8_hvt w=1e+06u l=180000u
X77 VGND S[12] a_5803_793# VNB sky130_fd_pr__nfet_01v8 w=420000u l=150000u
X78 a_4006_599# S[11] VPWR VPB sky130_fd_pr__pfet_01v8_hvt w=820000u l=180000u
X79 VGND S[4] a_5803_265# VNB sky130_fd_pr__nfet_01v8 w=420000u l=150000u
X80 a_6674_325# S[5] VPWR VPB sky130_fd_pr__pfet_01v8_hvt w=820000u l=180000u
X81 a_5803_793# S[12] VPWR VPB sky130_fd_pr__pfet_01v8_hvt w=820000u l=180000u
X82 a_1693_66# D[1] VGND VNB sky130_fd_pr__nfet_01v8 w=650000u l=150000u
X83 VGND D[1] a_1693_66# VNB sky130_fd_pr__nfet_01v8 w=650000u l=150000u
X84 Z S[14] a_7939_911# VNB sky130_fd_pr__nfet_01v8 w=520000u l=150000u
X85 VPWR D[5] a_6887_311# VPB sky130_fd_pr__pfet_01v8_hvt w=1e+06u l=180000u
X86 a_4006_325# S[3] VGND VNB sky130_fd_pr__nfet_01v8 w=420000u l=150000u
X87 VPWR D[9] a_1643_613# VPB sky130_fd_pr__pfet_01v8_hvt w=1e+06u l=180000u
X88 VGND D[5] a_6937_66# VNB sky130_fd_pr__nfet_01v8 w=650000u l=150000u
X89 VGND D[3] a_4269_66# VNB sky130_fd_pr__nfet_01v8 w=650000u l=150000u
X90 a_5361_297# a_5803_265# Z VPB sky130_fd_pr__pfet_01v8_hvt w=820000u l=180000u
X91 a_4006_599# S[11] VGND VNB sky130_fd_pr__nfet_01v8 w=420000u l=150000u
X92 VPWR D[10] a_2693_591# VPB sky130_fd_pr__pfet_01v8_hvt w=1e+06u l=180000u
X93 a_8379_793# S[14] VGND VNB sky130_fd_pr__nfet_01v8 w=420000u l=150000u
X94 a_6937_66# S[5] Z VNB sky130_fd_pr__nfet_01v8 w=520000u l=150000u
X95 a_9250_325# S[7] VGND VNB sky130_fd_pr__nfet_01v8 w=420000u l=150000u
X96 Z S[10] a_2695_911# VNB sky130_fd_pr__nfet_01v8 w=520000u l=150000u
X97 a_1643_613# a_1430_599# Z VPB sky130_fd_pr__pfet_01v8_hvt w=820000u l=180000u
X98 a_9513_66# S[7] Z VNB sky130_fd_pr__nfet_01v8 w=520000u l=150000u
X99 VGND D[8] a_119_911# VNB sky130_fd_pr__nfet_01v8 w=650000u l=150000u
X100 Z a_559_265# a_117_297# VPB sky130_fd_pr__pfet_01v8_hvt w=820000u l=180000u