* Copyright 2020 The SkyWater PDK Authors
*
* Licensed under the Apache License, Version 2.0 (the "License");
* you may not use this file except in compliance with the License.
* You may obtain a copy of the License at
*
*     https://www.apache.org/licenses/LICENSE-2.0
*
* Unless required by applicable law or agreed to in writing, software
* distributed under the License is distributed on an "AS IS" BASIS,
* WITHOUT WARRANTIES OR CONDITIONS OF ANY KIND, either express or implied.
* See the License for the specific language governing permissions and
* limitations under the License.
*
* SPDX-License-Identifier: Apache-2.0


.subckt sky130_fd_sc_hdll__clkmux2_2 VGND VPWR S A1 A0 X VPB VNB
M1000 VPWR a_79_199# X VPB phighvt w=1e+06u l=180000u
+  ad=1.0664e+12p pd=8.08e+06u as=2.9e+11p ps=2.58e+06u
M1001 VGND a_741_21# a_570_47# VNB nshort w=420000u l=150000u
+  ad=6.32e+11p pd=5.72e+06u as=3.591e+11p ps=2.55e+06u
M1002 a_335_309# S VPWR VPB phighvt w=940000u l=180000u
+  ad=3.901e+11p pd=2.71e+06u as=0p ps=0u
M1003 X a_79_199# VGND VNB nshort w=520000u l=150000u
+  ad=1.404e+11p pd=1.58e+06u as=0p ps=0u
M1004 a_741_21# S VGND VNB nshort w=520000u l=150000u
+  ad=1.352e+11p pd=1.56e+06u as=0p ps=0u
M1005 X a_79_199# VPWR VPB phighvt w=1e+06u l=180000u
+  ad=0p pd=0u as=0p ps=0u
M1006 a_691_309# A1 a_79_199# VPB phighvt w=940000u l=180000u
+  ad=2.444e+11p pd=2.4e+06u as=9.447e+11p ps=3.89e+06u
M1007 a_570_47# A0 a_79_199# VNB nshort w=420000u l=150000u
+  ad=0p pd=0u as=2.121e+11p ps=1.85e+06u
M1008 a_337_47# S VGND VNB nshort w=420000u l=150000u
+  ad=1.512e+11p pd=1.56e+06u as=0p ps=0u
M1009 a_741_21# S VPWR VPB phighvt w=940000u l=180000u
+  ad=2.726e+11p pd=2.46e+06u as=0p ps=0u
M1010 VGND a_79_199# X VNB nshort w=520000u l=150000u
+  ad=0p pd=0u as=0p ps=0u
M1011 a_79_199# A0 a_335_309# VPB phighvt w=940000u l=180000u
+  ad=0p pd=0u as=0p ps=0u
M1012 VPWR a_741_21# a_691_309# VPB phighvt w=940000u l=180000u
+  ad=0p pd=0u as=0p ps=0u
M1013 a_79_199# A1 a_337_47# VNB nshort w=420000u l=150000u
+  ad=0p pd=0u as=0p ps=0u
.ends
.subckt sky130_fd_sc_hdll__muxb4to1_4 VPB VNB VGND VPWR Z S[0] S[1] D[1] D[2] S[2]
+ S[3] D[3] D[0]
M1000 Z a_1430_325# a_1643_311# VPB phighvt w=820000u l=180000u
+  ad=1.9024e+12p pd=1.776e+07u as=1.2606e+12p ps=1.174e+07u
M1001 a_1643_311# D[1] VPWR VPB phighvt w=1e+06u l=180000u
+  ad=0p pd=0u as=5.0912e+12p ps=4.808e+07u
M1002 a_2695_47# D[2] VGND VNB nshort w=650000u l=150000u
+  ad=7.618e+11p pd=8.38e+06u as=3.3176e+12p ps=3.4e+07u
M1003 VPWR D[0] a_117_297# VPB phighvt w=1e+06u l=180000u
+  ad=0p pd=0u as=1.2606e+12p ps=1.174e+07u
M1004 VPWR S[0] a_559_265# VPB phighvt w=820000u l=180000u
+  ad=0p pd=0u as=2.378e+11p ps=2.22e+06u
M1005 a_2693_297# D[2] VPWR VPB phighvt w=1e+06u l=180000u
+  ad=1.2606e+12p pd=1.174e+07u as=0p ps=0u
M1006 VPWR D[1] a_1643_311# VPB phighvt w=1e+06u l=180000u
+  ad=0p pd=0u as=0p ps=0u
M1007 Z S[1] a_1693_66# VNB nshort w=520000u l=150000u
+  ad=1.1232e+12p pd=1.264e+07u as=7.618e+11p ps=8.38e+06u
M1008 Z S[2] a_2695_47# VNB nshort w=520000u l=150000u
+  ad=0p pd=0u as=0p ps=0u
M1009 a_2695_47# S[2] Z VNB nshort w=520000u l=150000u
+  ad=0p pd=0u as=0p ps=0u
M1010 VPWR D[3] a_4219_311# VPB phighvt w=1e+06u l=180000u
+  ad=0p pd=0u as=1.2606e+12p ps=1.174e+07u
M1011 Z S[3] a_4269_66# VNB nshort w=520000u l=150000u
+  ad=0p pd=0u as=7.618e+11p ps=8.38e+06u
M1012 a_4269_66# S[3] Z VNB nshort w=520000u l=150000u
+  ad=0p pd=0u as=0p ps=0u
M1013 VGND D[3] a_4269_66# VNB nshort w=650000u l=150000u
+  ad=0p pd=0u as=0p ps=0u
M1014 a_1643_311# a_1430_325# Z VPB phighvt w=820000u l=180000u
+  ad=0p pd=0u as=0p ps=0u
M1015 a_119_47# S[0] Z VNB nshort w=520000u l=150000u
+  ad=7.618e+11p pd=8.38e+06u as=0p ps=0u
M1016 a_1693_66# S[1] Z VNB nshort w=520000u l=150000u
+  ad=0p pd=0u as=0p ps=0u
M1017 VGND D[1] a_1693_66# VNB nshort w=650000u l=150000u
+  ad=0p pd=0u as=0p ps=0u
M1018 a_559_265# S[0] VPWR VPB phighvt w=820000u l=180000u
+  ad=0p pd=0u as=0p ps=0u
M1019 VPWR D[2] a_2693_297# VPB phighvt w=1e+06u l=180000u
+  ad=0p pd=0u as=0p ps=0u
M1020 a_3135_265# S[2] VPWR VPB phighvt w=820000u l=180000u
+  ad=2.378e+11p pd=2.22e+06u as=0p ps=0u
M1021 VGND D[2] a_2695_47# VNB nshort w=650000u l=150000u
+  ad=0p pd=0u as=0p ps=0u
M1022 Z S[3] a_4269_66# VNB nshort w=520000u l=150000u
+  ad=0p pd=0u as=0p ps=0u
M1023 Z S[0] a_119_47# VNB nshort w=520000u l=150000u
+  ad=0p pd=0u as=0p ps=0u
M1024 VGND D[0] a_119_47# VNB nshort w=650000u l=150000u
+  ad=0p pd=0u as=0p ps=0u
M1025 a_2693_297# a_3135_265# Z VPB phighvt w=820000u l=180000u
+  ad=0p pd=0u as=0p ps=0u
M1026 Z S[1] a_1693_66# VNB nshort w=520000u l=150000u
+  ad=0p pd=0u as=0p ps=0u
M1027 a_4219_311# D[3] VPWR VPB phighvt w=1e+06u l=180000u
+  ad=0p pd=0u as=0p ps=0u
M1028 a_119_47# S[0] Z VNB nshort w=520000u l=150000u
+  ad=0p pd=0u as=0p ps=0u
M1029 a_1693_66# D[1] VGND VNB nshort w=650000u l=150000u
+  ad=0p pd=0u as=0p ps=0u
M1030 a_2695_47# S[2] Z VNB nshort w=520000u l=150000u
+  ad=0p pd=0u as=0p ps=0u
M1031 a_4269_66# S[3] Z VNB nshort w=520000u l=150000u
+  ad=0p pd=0u as=0p ps=0u
M1032 a_4269_66# D[3] VGND VNB nshort w=650000u l=150000u
+  ad=0p pd=0u as=0p ps=0u
M1033 a_1693_66# S[1] Z VNB nshort w=520000u l=150000u
+  ad=0p pd=0u as=0p ps=0u
M1034 a_2695_47# D[2] VGND VNB nshort w=650000u l=150000u
+  ad=0p pd=0u as=0p ps=0u
M1035 VPWR D[3] a_4219_311# VPB phighvt w=1e+06u l=180000u
+  ad=0p pd=0u as=0p ps=0u
M1036 VPWR S[1] a_1430_325# VPB phighvt w=820000u l=180000u
+  ad=0p pd=0u as=2.378e+11p ps=2.22e+06u
M1037 Z S[0] a_119_47# VNB nshort w=520000u l=150000u
+  ad=0p pd=0u as=0p ps=0u
M1038 a_1643_311# D[1] VPWR VPB phighvt w=1e+06u l=180000u
+  ad=0p pd=0u as=0p ps=0u
M1039 a_4219_311# a_4006_325# Z VPB phighvt w=820000u l=180000u
+  ad=0p pd=0u as=0p ps=0u
M1040 a_4269_66# D[3] VGND VNB nshort w=650000u l=150000u
+  ad=0p pd=0u as=0p ps=0u
M1041 a_117_297# D[0] VPWR VPB phighvt w=1e+06u l=180000u
+  ad=0p pd=0u as=0p ps=0u
M1042 a_117_297# a_559_265# Z VPB phighvt w=820000u l=180000u
+  ad=0p pd=0u as=0p ps=0u
M1043 Z a_1430_325# a_1643_311# VPB phighvt w=820000u l=180000u
+  ad=0p pd=0u as=0p ps=0u
M1044 Z a_3135_265# a_2693_297# VPB phighvt w=820000u l=180000u
+  ad=0p pd=0u as=0p ps=0u
M1045 a_4006_325# S[3] VPWR VPB phighvt w=820000u l=180000u
+  ad=2.378e+11p pd=2.22e+06u as=0p ps=0u
M1046 a_559_265# S[0] VGND VNB nshort w=420000u l=150000u
+  ad=1.134e+11p pd=1.38e+06u as=0p ps=0u
M1047 a_2693_297# D[2] VPWR VPB phighvt w=1e+06u l=180000u
+  ad=0p pd=0u as=0p ps=0u
M1048 Z a_4006_325# a_4219_311# VPB phighvt w=820000u l=180000u
+  ad=0p pd=0u as=0p ps=0u
M1049 VGND D[1] a_1693_66# VNB nshort w=650000u l=150000u
+  ad=0p pd=0u as=0p ps=0u
M1050 a_1430_325# S[1] VPWR VPB phighvt w=820000u l=180000u
+  ad=0p pd=0u as=0p ps=0u
M1051 a_2693_297# a_3135_265# Z VPB phighvt w=820000u l=180000u
+  ad=0p pd=0u as=0p ps=0u
M1052 VGND D[2] a_2695_47# VNB nshort w=650000u l=150000u
+  ad=0p pd=0u as=0p ps=0u
M1053 VGND S[0] a_559_265# VNB nshort w=420000u l=150000u
+  ad=0p pd=0u as=0p ps=0u
M1054 VGND D[3] a_4269_66# VNB nshort w=650000u l=150000u
+  ad=0p pd=0u as=0p ps=0u
M1055 VPWR D[0] a_117_297# VPB phighvt w=1e+06u l=180000u
+  ad=0p pd=0u as=0p ps=0u
M1056 Z a_559_265# a_117_297# VPB phighvt w=820000u l=180000u
+  ad=0p pd=0u as=0p ps=0u
M1057 a_119_47# D[0] VGND VNB nshort w=650000u l=150000u
+  ad=0p pd=0u as=0p ps=0u
M1058 VGND S[2] a_3135_265# VNB nshort w=420000u l=150000u
+  ad=0p pd=0u as=1.134e+11p ps=1.38e+06u
M1059 VGND S[3] a_4006_325# VNB nshort w=420000u l=150000u
+  ad=0p pd=0u as=1.134e+11p ps=1.38e+06u
M1060 a_4219_311# a_4006_325# Z VPB phighvt w=820000u l=180000u
+  ad=0p pd=0u as=0p ps=0u
M1061 VGND S[1] a_1430_325# VNB nshort w=420000u l=150000u
+  ad=0p pd=0u as=1.134e+11p ps=1.38e+06u
M1062 a_3135_265# S[2] VGND VNB nshort w=420000u l=150000u
+  ad=0p pd=0u as=0p ps=0u
M1063 a_117_297# a_559_265# Z VPB phighvt w=820000u l=180000u
+  ad=0p pd=0u as=0p ps=0u
M1064 Z a_3135_265# a_2693_297# VPB phighvt w=820000u l=180000u
+  ad=0p pd=0u as=0p ps=0u
M1065 VPWR D[1] a_1643_311# VPB phighvt w=1e+06u l=180000u
+  ad=0p pd=0u as=0p ps=0u
M1066 a_1643_311# a_1430_325# Z VPB phighvt w=820000u l=180000u
+  ad=0p pd=0u as=0p ps=0u
M1067 VPWR S[3] a_4006_325# VPB phighvt w=820000u l=180000u
+  ad=0p pd=0u as=0p ps=0u
M1068 Z a_4006_325# a_4219_311# VPB phighvt w=820000u l=180000u
+  ad=0p pd=0u as=0p ps=0u
M1069 a_1430_325# S[1] VGND VNB nshort w=420000u l=150000u
+  ad=0p pd=0u as=0p ps=0u
M1070 a_4219_311# D[3] VPWR VPB phighvt w=1e+06u l=180000u
+  ad=0p pd=0u as=0p ps=0u
M1071 a_117_297# D[0] VPWR VPB phighvt w=1e+06u l=180000u
+  ad=0p pd=0u as=0p ps=0u
M1072 Z a_559_265# a_117_297# VPB phighvt w=820000u l=180000u
+  ad=0p pd=0u as=0p ps=0u
M1073 VGND D[0] a_119_47# VNB nshort w=650000u l=150000u
+  ad=0p pd=0u as=0p ps=0u
M1074 VPWR D[2] a_2693_297# VPB phighvt w=1e+06u l=180000u
+  ad=0p pd=0u as=0p ps=0u
M1075 a_4006_325# S[3] VGND VNB nshort w=420000u l=150000u
+  ad=0p pd=0u as=0p ps=0u
M1076 VPWR S[2] a_3135_265# VPB phighvt w=820000u l=180000u
+  ad=0p pd=0u as=0p ps=0u
M1077 Z S[2] a_2695_47# VNB nshort w=520000u l=150000u
+  ad=0p pd=0u as=0p ps=0u
M1078 a_119_47# D[0] VGND VNB nshort w=650000u l=150000u
+  ad=0p pd=0u as=0p ps=0u
M1079 a_1693_66# D[1] VGND VNB nshort w=650000u l=150000u
+  ad=0p pd=0u as=0p ps=0u
.ends
.subckt sky130_fd_sc_hdll__muxb16to1_1 Z VGND VPWR VNB VPB D[0] S[12] S[13] S[8] S[9]
+ S[10] S[11] S[14] S[15] D[12] D[9] D[10] D[13] D[14] D[15] D[8] D[11] S[0] S[1]
+ D[1] D[2] S[2] S[3] D[4] S[4] S[5] D[5] D[6] S[6] S[7] D[7] D[3]
M1000 Z a_1012_793# a_945_591# VPB phighvt w=820000u l=180000u
+  ad=3.5424e+12p pd=3.488e+07u as=3.297e+11p ps=2.69e+06u
M1001 a_1765_47# D[4] VGND VNB nshort w=650000u l=150000u
+  ad=2.015e+11p pd=1.95e+06u as=3.7518e+12p ps=3.424e+07u
M1002 a_937_47# D[2] VGND VNB nshort w=650000u l=150000u
+  ad=2.015e+11p pd=1.95e+06u as=0p ps=0u
M1003 a_2593_47# D[6] VGND VNB nshort w=650000u l=150000u
+  ad=2.015e+11p pd=1.95e+06u as=0p ps=0u
M1004 Z a_2668_793# a_2601_591# VPB phighvt w=820000u l=180000u
+  ad=0p pd=0u as=3.297e+11p ps=2.69e+06u
M1005 a_1773_297# D[4] VPWR VPB phighvt w=1e+06u l=180000u
+  ad=3.297e+11p pd=2.69e+06u as=6.38e+12p ps=4.876e+07u
M1006 a_1773_591# D[12] VPWR VPB phighvt w=1e+06u l=180000u
+  ad=3.297e+11p pd=2.69e+06u as=0p ps=0u
M1007 VGND S[6] a_2668_265# VNB nshort w=520000u l=150000u
+  ad=0p pd=0u as=1.482e+11p ps=1.61e+06u
M1008 a_2390_591# a_2189_937# Z VPB phighvt w=820000u l=180000u
+  ad=3.297e+11p pd=2.69e+06u as=0p ps=0u
M1009 a_1361_47# S[3] VPWR VPB phighvt w=1e+06u l=180000u
+  ad=2.7e+11p pd=2.54e+06u as=0p ps=0u
M1010 VPWR D[7] a_3218_333# VPB phighvt w=1e+06u l=180000u
+  ad=0p pd=0u as=3.297e+11p ps=2.69e+06u
M1011 a_937_911# D[10] VGND VNB nshort w=650000u l=150000u
+  ad=2.015e+11p pd=1.95e+06u as=0p ps=0u
M1012 a_1361_937# S[11] VPWR VPB phighvt w=1e+06u l=180000u
+  ad=2.7e+11p pd=2.54e+06u as=0p ps=0u
M1013 VPWR D[15] a_3218_591# VPB phighvt w=1e+06u l=180000u
+  ad=0p pd=0u as=3.297e+11p ps=2.69e+06u
M1014 Z a_1840_265# a_1773_297# VPB phighvt w=820000u l=180000u
+  ad=0p pd=0u as=0p ps=0u
M1015 a_1574_47# S[3] Z VNB nshort w=520000u l=150000u
+  ad=2.015e+11p pd=1.95e+06u as=2.1632e+12p ps=2.496e+07u
M1016 a_2402_937# S[13] Z VNB nshort w=520000u l=150000u
+  ad=2.015e+11p pd=1.95e+06u as=0p ps=0u
M1017 a_734_333# a_533_47# Z VPB phighvt w=820000u l=180000u
+  ad=3.297e+11p pd=2.69e+06u as=0p ps=0u
M1018 Z S[2] a_937_47# VNB nshort w=520000u l=150000u
+  ad=0p pd=0u as=0p ps=0u
M1019 a_3017_47# S[7] VPWR VPB phighvt w=1e+06u l=180000u
+  ad=2.7e+11p pd=2.54e+06u as=0p ps=0u
M1020 a_2402_47# S[5] Z VNB nshort w=520000u l=150000u
+  ad=2.015e+11p pd=1.95e+06u as=0p ps=0u
M1021 a_3017_937# S[15] VPWR VPB phighvt w=1e+06u l=180000u
+  ad=2.7e+11p pd=2.54e+06u as=0p ps=0u
M1022 a_1562_333# a_1361_47# Z VPB phighvt w=820000u l=180000u
+  ad=3.297e+11p pd=2.69e+06u as=0p ps=0u
M1023 a_746_47# S[1] Z VNB nshort w=520000u l=150000u
+  ad=2.015e+11p pd=1.95e+06u as=0p ps=0u
M1024 VGND S[12] a_1840_793# VNB nshort w=520000u l=150000u
+  ad=0p pd=0u as=1.482e+11p ps=1.61e+06u
M1025 a_109_911# D[8] VGND VNB nshort w=650000u l=150000u
+  ad=2.015e+11p pd=1.95e+06u as=0p ps=0u
M1026 VGND S[14] a_2668_793# VNB nshort w=520000u l=150000u
+  ad=0p pd=0u as=1.482e+11p ps=1.61e+06u
M1027 a_117_297# D[0] VPWR VPB phighvt w=1e+06u l=180000u
+  ad=3.297e+11p pd=2.69e+06u as=0p ps=0u
M1028 VPWR D[3] a_1562_333# VPB phighvt w=1e+06u l=180000u
+  ad=0p pd=0u as=0p ps=0u
M1029 a_2601_297# D[6] VPWR VPB phighvt w=1e+06u l=180000u
+  ad=3.297e+11p pd=2.69e+06u as=0p ps=0u
M1030 Z S[4] a_1765_47# VNB nshort w=520000u l=150000u
+  ad=0p pd=0u as=0p ps=0u
M1031 a_533_937# S[9] VGND VNB nshort w=520000u l=150000u
+  ad=1.482e+11p pd=1.61e+06u as=0p ps=0u
M1032 a_117_591# D[8] VPWR VPB phighvt w=1e+06u l=180000u
+  ad=3.297e+11p pd=2.69e+06u as=0p ps=0u
M1033 VPWR D[11] a_1562_591# VPB phighvt w=1e+06u l=180000u
+  ad=0p pd=0u as=3.297e+11p ps=2.69e+06u
M1034 VGND D[15] a_3230_937# VNB nshort w=650000u l=150000u
+  ad=0p pd=0u as=2.015e+11p ps=1.95e+06u
M1035 a_2601_591# D[14] VPWR VPB phighvt w=1e+06u l=180000u
+  ad=0p pd=0u as=0p ps=0u
M1036 Z a_184_265# a_117_297# VPB phighvt w=820000u l=180000u
+  ad=0p pd=0u as=0p ps=0u
M1037 a_1765_911# D[12] VGND VNB nshort w=650000u l=150000u
+  ad=2.015e+11p pd=1.95e+06u as=0p ps=0u
M1038 a_3218_591# a_3017_937# Z VPB phighvt w=820000u l=180000u
+  ad=0p pd=0u as=0p ps=0u
M1039 a_533_47# S[1] VPWR VPB phighvt w=1e+06u l=180000u
+  ad=2.7e+11p pd=2.54e+06u as=0p ps=0u
M1040 a_945_297# D[2] VPWR VPB phighvt w=1e+06u l=180000u
+  ad=3.297e+11p pd=2.69e+06u as=0p ps=0u
M1041 Z a_1012_265# a_945_297# VPB phighvt w=820000u l=180000u
+  ad=0p pd=0u as=0p ps=0u
M1042 a_533_937# S[9] VPWR VPB phighvt w=1e+06u l=180000u
+  ad=2.7e+11p pd=2.54e+06u as=0p ps=0u
M1043 VGND D[11] a_1574_937# VNB nshort w=650000u l=150000u
+  ad=0p pd=0u as=2.015e+11p ps=1.95e+06u
M1044 a_945_591# D[10] VPWR VPB phighvt w=1e+06u l=180000u
+  ad=0p pd=0u as=0p ps=0u
M1045 VPWR S[0] a_184_265# VPB phighvt w=1e+06u l=180000u
+  ad=0p pd=0u as=2.7e+11p ps=2.54e+06u
M1046 a_2189_47# S[5] VPWR VPB phighvt w=1e+06u l=180000u
+  ad=2.7e+11p pd=2.54e+06u as=0p ps=0u
M1047 a_746_937# S[9] Z VNB nshort w=520000u l=150000u
+  ad=2.015e+11p pd=1.95e+06u as=0p ps=0u
M1048 VPWR S[8] a_184_793# VPB phighvt w=1e+06u l=180000u
+  ad=0p pd=0u as=2.7e+11p ps=2.54e+06u
M1049 a_2189_937# S[13] VPWR VPB phighvt w=1e+06u l=180000u
+  ad=2.7e+11p pd=2.54e+06u as=0p ps=0u
M1050 VPWR S[2] a_1012_265# VPB phighvt w=1e+06u l=180000u
+  ad=0p pd=0u as=2.7e+11p ps=2.54e+06u
M1051 Z a_2668_265# a_2601_297# VPB phighvt w=820000u l=180000u
+  ad=0p pd=0u as=0p ps=0u
M1052 a_1361_47# S[3] VGND VNB nshort w=520000u l=150000u
+  ad=1.482e+11p pd=1.61e+06u as=0p ps=0u
M1053 VPWR S[10] a_1012_793# VPB phighvt w=1e+06u l=180000u
+  ad=0p pd=0u as=2.7e+11p ps=2.54e+06u
M1054 a_3230_937# S[15] Z VNB nshort w=520000u l=150000u
+  ad=0p pd=0u as=0p ps=0u
M1055 a_533_47# S[1] VGND VNB nshort w=520000u l=150000u
+  ad=1.482e+11p pd=1.61e+06u as=0p ps=0u
M1056 Z S[8] a_109_911# VNB nshort w=520000u l=150000u
+  ad=0p pd=0u as=0p ps=0u
M1057 VGND D[9] a_746_937# VNB nshort w=650000u l=150000u
+  ad=0p pd=0u as=0p ps=0u
M1058 VGND S[0] a_184_265# VNB nshort w=520000u l=150000u
+  ad=0p pd=0u as=1.482e+11p ps=1.61e+06u
M1059 a_2390_333# a_2189_47# Z VPB phighvt w=820000u l=180000u
+  ad=3.297e+11p pd=2.69e+06u as=0p ps=0u
M1060 a_3230_47# S[7] Z VNB nshort w=520000u l=150000u
+  ad=2.015e+11p pd=1.95e+06u as=0p ps=0u
M1061 a_1361_937# S[11] VGND VNB nshort w=520000u l=150000u
+  ad=1.482e+11p pd=1.61e+06u as=0p ps=0u
M1062 VGND D[1] a_746_47# VNB nshort w=650000u l=150000u
+  ad=0p pd=0u as=0p ps=0u
M1063 Z S[6] a_2593_47# VNB nshort w=520000u l=150000u
+  ad=0p pd=0u as=0p ps=0u
M1064 Z a_1840_793# a_1773_591# VPB phighvt w=820000u l=180000u
+  ad=0p pd=0u as=0p ps=0u
M1065 Z S[10] a_937_911# VNB nshort w=520000u l=150000u
+  ad=0p pd=0u as=0p ps=0u
M1066 VPWR S[6] a_2668_265# VPB phighvt w=1e+06u l=180000u
+  ad=0p pd=0u as=2.7e+11p ps=2.54e+06u
M1067 VGND S[8] a_184_793# VNB nshort w=520000u l=150000u
+  ad=0p pd=0u as=1.482e+11p ps=1.61e+06u
M1068 a_1574_937# S[11] Z VNB nshort w=520000u l=150000u
+  ad=0p pd=0u as=0p ps=0u
M1069 Z S[12] a_1765_911# VNB nshort w=520000u l=150000u
+  ad=0p pd=0u as=0p ps=0u
M1070 a_2189_937# S[13] VGND VNB nshort w=520000u l=150000u
+  ad=1.482e+11p pd=1.61e+06u as=0p ps=0u
M1071 a_734_591# a_533_937# Z VPB phighvt w=820000u l=180000u
+  ad=3.297e+11p pd=2.69e+06u as=0p ps=0u
M1072 VPWR S[14] a_2668_793# VPB phighvt w=1e+06u l=180000u
+  ad=0p pd=0u as=2.7e+11p ps=2.54e+06u
M1073 a_3017_937# S[15] VGND VNB nshort w=520000u l=150000u
+  ad=1.482e+11p pd=1.61e+06u as=0p ps=0u
M1074 a_1562_591# a_1361_937# Z VPB phighvt w=820000u l=180000u
+  ad=0p pd=0u as=0p ps=0u
M1075 VPWR D[1] a_734_333# VPB phighvt w=1e+06u l=180000u
+  ad=0p pd=0u as=0p ps=0u
M1076 VPWR D[9] a_734_591# VPB phighvt w=1e+06u l=180000u
+  ad=0p pd=0u as=0p ps=0u
M1077 VPWR D[5] a_2390_333# VPB phighvt w=1e+06u l=180000u
+  ad=0p pd=0u as=0p ps=0u
M1078 a_2189_47# S[5] VGND VNB nshort w=520000u l=150000u
+  ad=1.482e+11p pd=1.61e+06u as=0p ps=0u
M1079 VPWR D[13] a_2390_591# VPB phighvt w=1e+06u l=180000u
+  ad=0p pd=0u as=0p ps=0u
M1080 VPWR S[4] a_1840_265# VPB phighvt w=1e+06u l=180000u
+  ad=0p pd=0u as=2.7e+11p ps=2.54e+06u
M1081 VGND D[3] a_1574_47# VNB nshort w=650000u l=150000u
+  ad=0p pd=0u as=0p ps=0u
M1082 VGND S[10] a_1012_793# VNB nshort w=520000u l=150000u
+  ad=0p pd=0u as=1.482e+11p ps=1.61e+06u
M1083 a_2593_911# D[14] VGND VNB nshort w=650000u l=150000u
+  ad=2.015e+11p pd=1.95e+06u as=0p ps=0u
M1084 Z S[14] a_2593_911# VNB nshort w=520000u l=150000u
+  ad=0p pd=0u as=0p ps=0u
M1085 VPWR S[12] a_1840_793# VPB phighvt w=1e+06u l=180000u
+  ad=0p pd=0u as=2.7e+11p ps=2.54e+06u
M1086 a_109_47# D[0] VGND VNB nshort w=650000u l=150000u
+  ad=2.015e+11p pd=1.95e+06u as=0p ps=0u
M1087 VGND D[5] a_2402_47# VNB nshort w=650000u l=150000u
+  ad=0p pd=0u as=0p ps=0u
M1088 VGND S[2] a_1012_265# VNB nshort w=520000u l=150000u
+  ad=0p pd=0u as=1.482e+11p ps=1.61e+06u
M1089 VGND D[7] a_3230_47# VNB nshort w=650000u l=150000u
+  ad=0p pd=0u as=0p ps=0u
M1090 Z a_184_793# a_117_591# VPB phighvt w=820000u l=180000u
+  ad=0p pd=0u as=0p ps=0u
M1091 VGND D[13] a_2402_937# VNB nshort w=650000u l=150000u
+  ad=0p pd=0u as=0p ps=0u
M1092 Z S[0] a_109_47# VNB nshort w=520000u l=150000u
+  ad=0p pd=0u as=0p ps=0u
M1093 a_3218_333# a_3017_47# Z VPB phighvt w=820000u l=180000u
+  ad=0p pd=0u as=0p ps=0u
M1094 VGND S[4] a_1840_265# VNB nshort w=520000u l=150000u
+  ad=0p pd=0u as=1.482e+11p ps=1.61e+06u
M1095 a_3017_47# S[7] VGND VNB nshort w=520000u l=150000u
+  ad=1.482e+11p pd=1.61e+06u as=0p ps=0u
.ends
.subckt sky130_fd_sc_hdll__muxb4to1_2 VGND VPWR Z VNB VPB S[1] S[2] S[3] D[1] D[0]
+ D[2] D[3] S[0]
M1000 VPWR D[2] a_1315_297# VPB phighvt w=1e+06u l=180000u
+  ad=1.88e+12p pd=1.576e+07u as=8.211e+11p ps=7.41e+06u
M1001 VPWR D[3] a_2112_333# VPB phighvt w=1e+06u l=180000u
+  ad=0p pd=0u as=8.211e+11p ps=7.41e+06u
M1002 a_27_297# D[0] VPWR VPB phighvt w=1e+06u l=180000u
+  ad=8.211e+11p pd=7.41e+06u as=0p ps=0u
M1003 Z a_1566_265# a_1315_297# VPB phighvt w=820000u l=180000u
+  ad=9.512e+11p pd=8.88e+06u as=0p ps=0u
M1004 Z a_1989_47# a_2112_333# VPB phighvt w=820000u l=180000u
+  ad=0p pd=0u as=0p ps=0u
M1005 a_27_297# a_278_265# Z VPB phighvt w=820000u l=180000u
+  ad=0p pd=0u as=0p ps=0u
M1006 VPWR S[0] a_278_265# VPB phighvt w=1e+06u l=180000u
+  ad=0p pd=0u as=2.7e+11p ps=2.54e+06u
M1007 a_1989_47# S[3] VGND VNB nshort w=520000u l=150000u
+  ad=1.352e+11p pd=1.56e+06u as=9.828e+11p ps=1.052e+07u
M1008 a_2133_69# D[3] VGND VNB nshort w=650000u l=150000u
+  ad=5.6745e+11p pd=5.52e+06u as=0p ps=0u
M1009 Z a_278_265# a_27_297# VPB phighvt w=820000u l=180000u
+  ad=0p pd=0u as=0p ps=0u
M1010 a_845_69# S[1] Z VNB nshort w=520000u l=150000u
+  ad=5.6745e+11p pd=5.52e+06u as=5.616e+11p ps=6.32e+06u
M1011 a_27_47# S[0] Z VNB nshort w=520000u l=150000u
+  ad=5.6745e+11p pd=5.52e+06u as=0p ps=0u
M1012 Z S[1] a_845_69# VNB nshort w=520000u l=150000u
+  ad=0p pd=0u as=0p ps=0u
M1013 a_27_47# D[0] VGND VNB nshort w=650000u l=150000u
+  ad=0p pd=0u as=0p ps=0u
M1014 Z S[0] a_27_47# VNB nshort w=520000u l=150000u
+  ad=0p pd=0u as=0p ps=0u
M1015 a_824_333# D[1] VPWR VPB phighvt w=1e+06u l=180000u
+  ad=8.211e+11p pd=7.41e+06u as=0p ps=0u
M1016 a_1989_47# S[3] VPWR VPB phighvt w=1e+06u l=180000u
+  ad=2.7e+11p pd=2.54e+06u as=0p ps=0u
M1017 VPWR D[0] a_27_297# VPB phighvt w=1e+06u l=180000u
+  ad=0p pd=0u as=0p ps=0u
M1018 a_701_47# S[1] VGND VNB nshort w=520000u l=150000u
+  ad=1.352e+11p pd=1.56e+06u as=0p ps=0u
M1019 VGND D[1] a_845_69# VNB nshort w=650000u l=150000u
+  ad=0p pd=0u as=0p ps=0u
M1020 a_824_333# a_701_47# Z VPB phighvt w=820000u l=180000u
+  ad=0p pd=0u as=0p ps=0u
M1021 VGND S[0] a_278_265# VNB nshort w=520000u l=150000u
+  ad=0p pd=0u as=1.352e+11p ps=1.56e+06u
M1022 a_701_47# S[1] VPWR VPB phighvt w=1e+06u l=180000u
+  ad=2.7e+11p pd=2.54e+06u as=0p ps=0u
M1023 VPWR D[1] a_824_333# VPB phighvt w=1e+06u l=180000u
+  ad=0p pd=0u as=0p ps=0u
M1024 a_845_69# D[1] VGND VNB nshort w=650000u l=150000u
+  ad=0p pd=0u as=0p ps=0u
M1025 Z S[3] a_2133_69# VNB nshort w=520000u l=150000u
+  ad=0p pd=0u as=0p ps=0u
M1026 VGND D[0] a_27_47# VNB nshort w=650000u l=150000u
+  ad=0p pd=0u as=0p ps=0u
M1027 Z a_701_47# a_824_333# VPB phighvt w=820000u l=180000u
+  ad=0p pd=0u as=0p ps=0u
M1028 a_1315_47# D[2] VGND VNB nshort w=650000u l=150000u
+  ad=5.6745e+11p pd=5.52e+06u as=0p ps=0u
M1029 Z S[2] a_1315_47# VNB nshort w=520000u l=150000u
+  ad=0p pd=0u as=0p ps=0u
M1030 a_1315_297# D[2] VPWR VPB phighvt w=1e+06u l=180000u
+  ad=0p pd=0u as=0p ps=0u
M1031 a_1315_297# a_1566_265# Z VPB phighvt w=820000u l=180000u
+  ad=0p pd=0u as=0p ps=0u
M1032 a_2112_333# a_1989_47# Z VPB phighvt w=820000u l=180000u
+  ad=0p pd=0u as=0p ps=0u
M1033 VGND D[2] a_1315_47# VNB nshort w=650000u l=150000u
+  ad=0p pd=0u as=0p ps=0u
M1034 a_2133_69# S[3] Z VNB nshort w=520000u l=150000u
+  ad=0p pd=0u as=0p ps=0u
M1035 VPWR S[2] a_1566_265# VPB phighvt w=1e+06u l=180000u
+  ad=0p pd=0u as=2.7e+11p ps=2.54e+06u
M1036 a_2112_333# D[3] VPWR VPB phighvt w=1e+06u l=180000u
+  ad=0p pd=0u as=0p ps=0u
M1037 a_1315_47# S[2] Z VNB nshort w=520000u l=150000u
+  ad=0p pd=0u as=0p ps=0u
M1038 VGND S[2] a_1566_265# VNB nshort w=520000u l=150000u
+  ad=0p pd=0u as=1.352e+11p ps=1.56e+06u
M1039 VGND D[3] a_2133_69# VNB nshort w=650000u l=150000u
+  ad=0p pd=0u as=0p ps=0u
.ends
.subckt sky130_fd_sc_hdll__muxb8to1_1 VGND Z VPWR VNB VPB D[0] S[0] S[1] D[1] D[2]
+ S[2] S[3] D[4] S[4] S[5] D[5] D[6] S[6] S[7] D[7] D[3]
M1000 a_1765_47# D[4] VGND VNB nshort w=650000u l=150000u
+  ad=2.015e+11p pd=1.95e+06u as=1.8759e+12p ps=1.712e+07u
M1001 a_937_47# D[2] VGND VNB nshort w=650000u l=150000u
+  ad=2.015e+11p pd=1.95e+06u as=0p ps=0u
M1002 a_2593_47# D[6] VGND VNB nshort w=650000u l=150000u
+  ad=2.015e+11p pd=1.95e+06u as=0p ps=0u
M1003 a_1773_297# D[4] VPWR VPB phighvt w=1e+06u l=180000u
+  ad=3.297e+11p pd=2.69e+06u as=3.19e+12p ps=2.438e+07u
M1004 VGND S[6] a_2668_265# VNB nshort w=520000u l=150000u
+  ad=0p pd=0u as=1.482e+11p ps=1.61e+06u
M1005 a_1361_47# S[3] VPWR VPB phighvt w=1e+06u l=180000u
+  ad=2.7e+11p pd=2.54e+06u as=0p ps=0u
M1006 VPWR D[7] a_3218_333# VPB phighvt w=1e+06u l=180000u
+  ad=0p pd=0u as=3.297e+11p ps=2.69e+06u
M1007 Z a_1840_265# a_1773_297# VPB phighvt w=820000u l=180000u
+  ad=1.7712e+12p pd=1.744e+07u as=0p ps=0u
M1008 a_1574_47# S[3] Z VNB nshort w=520000u l=150000u
+  ad=2.015e+11p pd=1.95e+06u as=1.0816e+12p ps=1.248e+07u
M1009 a_734_333# a_533_47# Z VPB phighvt w=820000u l=180000u
+  ad=3.297e+11p pd=2.69e+06u as=0p ps=0u
M1010 Z S[2] a_937_47# VNB nshort w=520000u l=150000u
+  ad=0p pd=0u as=0p ps=0u
M1011 a_3017_47# S[7] VPWR VPB phighvt w=1e+06u l=180000u
+  ad=2.7e+11p pd=2.54e+06u as=0p ps=0u
M1012 a_2402_47# S[5] Z VNB nshort w=520000u l=150000u
+  ad=2.015e+11p pd=1.95e+06u as=0p ps=0u
M1013 a_1562_333# a_1361_47# Z VPB phighvt w=820000u l=180000u
+  ad=3.297e+11p pd=2.69e+06u as=0p ps=0u
M1014 a_746_47# S[1] Z VNB nshort w=520000u l=150000u
+  ad=2.015e+11p pd=1.95e+06u as=0p ps=0u
M1015 a_117_297# D[0] VPWR VPB phighvt w=1e+06u l=180000u
+  ad=3.297e+11p pd=2.69e+06u as=0p ps=0u
M1016 VPWR D[3] a_1562_333# VPB phighvt w=1e+06u l=180000u
+  ad=0p pd=0u as=0p ps=0u
M1017 a_2601_297# D[6] VPWR VPB phighvt w=1e+06u l=180000u
+  ad=3.297e+11p pd=2.69e+06u as=0p ps=0u
M1018 Z S[4] a_1765_47# VNB nshort w=520000u l=150000u
+  ad=0p pd=0u as=0p ps=0u
M1019 Z a_184_265# a_117_297# VPB phighvt w=820000u l=180000u
+  ad=0p pd=0u as=0p ps=0u
M1020 a_533_47# S[1] VPWR VPB phighvt w=1e+06u l=180000u
+  ad=2.7e+11p pd=2.54e+06u as=0p ps=0u
M1021 a_945_297# D[2] VPWR VPB phighvt w=1e+06u l=180000u
+  ad=3.297e+11p pd=2.69e+06u as=0p ps=0u
M1022 Z a_1012_265# a_945_297# VPB phighvt w=820000u l=180000u
+  ad=0p pd=0u as=0p ps=0u
M1023 VPWR S[0] a_184_265# VPB phighvt w=1e+06u l=180000u
+  ad=0p pd=0u as=2.7e+11p ps=2.54e+06u
M1024 a_2189_47# S[5] VPWR VPB phighvt w=1e+06u l=180000u
+  ad=2.7e+11p pd=2.54e+06u as=0p ps=0u
M1025 VPWR S[2] a_1012_265# VPB phighvt w=1e+06u l=180000u
+  ad=0p pd=0u as=2.7e+11p ps=2.54e+06u
M1026 Z a_2668_265# a_2601_297# VPB phighvt w=820000u l=180000u
+  ad=0p pd=0u as=0p ps=0u
M1027 a_1361_47# S[3] VGND VNB nshort w=520000u l=150000u
+  ad=1.482e+11p pd=1.61e+06u as=0p ps=0u
M1028 a_533_47# S[1] VGND VNB nshort w=520000u l=150000u
+  ad=1.482e+11p pd=1.61e+06u as=0p ps=0u
M1029 VGND S[0] a_184_265# VNB nshort w=520000u l=150000u
+  ad=0p pd=0u as=1.482e+11p ps=1.61e+06u
M1030 a_2390_333# a_2189_47# Z VPB phighvt w=820000u l=180000u
+  ad=3.297e+11p pd=2.69e+06u as=0p ps=0u
M1031 a_3230_47# S[7] Z VNB nshort w=520000u l=150000u
+  ad=2.015e+11p pd=1.95e+06u as=0p ps=0u
M1032 VGND D[1] a_746_47# VNB nshort w=650000u l=150000u
+  ad=0p pd=0u as=0p ps=0u
M1033 Z S[6] a_2593_47# VNB nshort w=520000u l=150000u
+  ad=0p pd=0u as=0p ps=0u
M1034 VPWR S[6] a_2668_265# VPB phighvt w=1e+06u l=180000u
+  ad=0p pd=0u as=2.7e+11p ps=2.54e+06u
M1035 VPWR D[1] a_734_333# VPB phighvt w=1e+06u l=180000u
+  ad=0p pd=0u as=0p ps=0u
M1036 VPWR D[5] a_2390_333# VPB phighvt w=1e+06u l=180000u
+  ad=0p pd=0u as=0p ps=0u
M1037 a_2189_47# S[5] VGND VNB nshort w=520000u l=150000u
+  ad=1.482e+11p pd=1.61e+06u as=0p ps=0u
M1038 VPWR S[4] a_1840_265# VPB phighvt w=1e+06u l=180000u
+  ad=0p pd=0u as=2.7e+11p ps=2.54e+06u
M1039 VGND D[3] a_1574_47# VNB nshort w=650000u l=150000u
+  ad=0p pd=0u as=0p ps=0u
M1040 a_109_47# D[0] VGND VNB nshort w=650000u l=150000u
+  ad=2.015e+11p pd=1.95e+06u as=0p ps=0u
M1041 VGND D[5] a_2402_47# VNB nshort w=650000u l=150000u
+  ad=0p pd=0u as=0p ps=0u
M1042 VGND S[2] a_1012_265# VNB nshort w=520000u l=150000u
+  ad=0p pd=0u as=1.482e+11p ps=1.61e+06u
M1043 VGND D[7] a_3230_47# VNB nshort w=650000u l=150000u
+  ad=0p pd=0u as=0p ps=0u
M1044 Z S[0] a_109_47# VNB nshort w=520000u l=150000u
+  ad=0p pd=0u as=0p ps=0u
M1045 a_3218_333# a_3017_47# Z VPB phighvt w=820000u l=180000u
+  ad=0p pd=0u as=0p ps=0u
M1046 VGND S[4] a_1840_265# VNB nshort w=520000u l=150000u
+  ad=0p pd=0u as=1.482e+11p ps=1.61e+06u
M1047 a_3017_47# S[7] VGND VNB nshort w=520000u l=150000u
+  ad=1.482e+11p pd=1.61e+06u as=0p ps=0u
.ends
.subckt sky130_fd_sc_hdll__muxb16to1_4 VGND Z VPWR VNB VPB S[6] S[10] D[12] D[13]
+ D[8] D[15] D[10] D[9] D[14] S[14] D[11] S[11] S[8] S[15] S[12] S[9] S[13] D[3] D[0]
+ D[4] D[5] D[2] D[1] D[6] S[2] S[3] S[7] S[0] S[1] S[4] S[5] D[7]
M1000 a_2693_591# a_3135_793# Z VPB phighvt w=820000u l=180000u
+  ad=1.2606e+12p pd=1.174e+07u as=7.6096e+12p ps=7.104e+07u
M1001 a_2695_47# D[2] VGND VNB nshort w=650000u l=150000u
+  ad=7.618e+11p pd=8.38e+06u as=1.32704e+13p ps=1.36e+08u
M1002 a_1643_311# D[1] VPWR VPB phighvt w=1e+06u l=180000u
+  ad=1.2606e+12p pd=1.174e+07u as=2.03648e+13p ps=1.9232e+08u
M1003 a_9513_66# S[7] Z VNB nshort w=520000u l=150000u
+  ad=7.618e+11p pd=8.38e+06u as=4.4928e+12p ps=5.056e+07u
M1004 a_7939_911# D[14] VGND VNB nshort w=650000u l=150000u
+  ad=7.618e+11p pd=8.38e+06u as=0p ps=0u
M1005 a_7939_911# S[14] Z VNB nshort w=520000u l=150000u
+  ad=0p pd=0u as=0p ps=0u
M1006 a_5361_591# D[12] VPWR VPB phighvt w=1e+06u l=180000u
+  ad=1.2606e+12p pd=1.174e+07u as=0p ps=0u
M1007 Z a_1430_325# a_1643_311# VPB phighvt w=820000u l=180000u
+  ad=0p pd=0u as=0p ps=0u
M1008 a_1430_599# S[9] VGND VNB nshort w=420000u l=150000u
+  ad=1.134e+11p pd=1.38e+06u as=0p ps=0u
M1009 a_8379_265# S[6] VGND VNB nshort w=420000u l=150000u
+  ad=1.134e+11p pd=1.38e+06u as=0p ps=0u
M1010 a_2695_911# S[10] Z VNB nshort w=520000u l=150000u
+  ad=7.618e+11p pd=8.38e+06u as=0p ps=0u
M1011 a_1643_613# D[9] VPWR VPB phighvt w=1e+06u l=180000u
+  ad=1.2606e+12p pd=1.174e+07u as=0p ps=0u
M1012 VGND D[12] a_5363_911# VNB nshort w=650000u l=150000u
+  ad=0p pd=0u as=7.618e+11p ps=8.38e+06u
M1013 Z a_9250_325# a_9463_311# VPB phighvt w=820000u l=180000u
+  ad=0p pd=0u as=1.2606e+12p ps=1.174e+07u
M1014 VPWR D[0] a_117_297# VPB phighvt w=1e+06u l=180000u
+  ad=0p pd=0u as=1.2606e+12p ps=1.174e+07u
M1015 VPWR S[6] a_8379_265# VPB phighvt w=820000u l=180000u
+  ad=0p pd=0u as=2.378e+11p ps=2.22e+06u
M1016 VPWR S[4] a_5803_265# VPB phighvt w=820000u l=180000u
+  ad=0p pd=0u as=2.378e+11p ps=2.22e+06u
M1017 a_559_793# S[8] VGND VNB nshort w=420000u l=150000u
+  ad=1.134e+11p pd=1.38e+06u as=0p ps=0u
M1018 VPWR S[0] a_559_265# VPB phighvt w=820000u l=180000u
+  ad=0p pd=0u as=2.378e+11p ps=2.22e+06u
M1019 VGND D[9] a_1693_918# VNB nshort w=650000u l=150000u
+  ad=0p pd=0u as=7.618e+11p ps=8.38e+06u
M1020 a_2693_297# D[2] VPWR VPB phighvt w=1e+06u l=180000u
+  ad=1.2606e+12p pd=1.174e+07u as=0p ps=0u
M1021 VGND D[4] a_5363_47# VNB nshort w=650000u l=150000u
+  ad=0p pd=0u as=7.618e+11p ps=8.38e+06u
M1022 a_6674_325# S[5] VPWR VPB phighvt w=820000u l=180000u