* File: sky130_fd_sc_hdll__nor4_8.pex.spice
* Created: Wed Sep  2 08:41:26 2020
* Program "Calibre xRC"
* Version "v2018.4_34.26"
* Nominal Temperature: 27C
* Circuit Temperature: 27C
* 
.subckt PM_SKY130_FD_SC_HDLL__NOR4_8%A 1 3 4 6 7 9 10 12 13 15 16 18 19 21 22 24
+ 25 27 28 30 31 33 34 36 37 39 40 42 43 45 46 48 49 70 71
r145 71 72 3.27446 $w=3.68e-07 $l=2.5e-08 $layer=POLY_cond $X=3.76 $Y=1.202
+ $X2=3.785 $Y2=1.202
r146 69 71 17.0272 $w=3.68e-07 $l=1.3e-07 $layer=POLY_cond $X=3.63 $Y=1.202
+ $X2=3.76 $Y2=1.202
r147 69 70 29.056 $w=1.7e-07 $l=8.5e-07 $layer=licon1_POLY $count=5 $X=3.63
+ $Y=1.16 $X2=3.63 $Y2=1.16
r148 67 69 37.9837 $w=3.68e-07 $l=2.9e-07 $layer=POLY_cond $X=3.34 $Y=1.202
+ $X2=3.63 $Y2=1.202
r149 66 67 3.27446 $w=3.68e-07 $l=2.5e-08 $layer=POLY_cond $X=3.315 $Y=1.202
+ $X2=3.34 $Y2=1.202
r150 65 66 61.5598 $w=3.68e-07 $l=4.7e-07 $layer=POLY_cond $X=2.845 $Y=1.202
+ $X2=3.315 $Y2=1.202
r151 64 65 3.27446 $w=3.68e-07 $l=2.5e-08 $layer=POLY_cond $X=2.82 $Y=1.202
+ $X2=2.845 $Y2=1.202
r152 63 64 55.0109 $w=3.68e-07 $l=4.2e-07 $layer=POLY_cond $X=2.4 $Y=1.202
+ $X2=2.82 $Y2=1.202
r153 62 63 3.27446 $w=3.68e-07 $l=2.5e-08 $layer=POLY_cond $X=2.375 $Y=1.202
+ $X2=2.4 $Y2=1.202
r154 61 62 61.5598 $w=3.68e-07 $l=4.7e-07 $layer=POLY_cond $X=1.905 $Y=1.202
+ $X2=2.375 $Y2=1.202
r155 60 61 3.27446 $w=3.68e-07 $l=2.5e-08 $layer=POLY_cond $X=1.88 $Y=1.202
+ $X2=1.905 $Y2=1.202
r156 59 60 55.0109 $w=3.68e-07 $l=4.2e-07 $layer=POLY_cond $X=1.46 $Y=1.202
+ $X2=1.88 $Y2=1.202
r157 58 59 3.27446 $w=3.68e-07 $l=2.5e-08 $layer=POLY_cond $X=1.435 $Y=1.202
+ $X2=1.46 $Y2=1.202
r158 57 58 61.5598 $w=3.68e-07 $l=4.7e-07 $layer=POLY_cond $X=0.965 $Y=1.202
+ $X2=1.435 $Y2=1.202
r159 56 57 3.27446 $w=3.68e-07 $l=2.5e-08 $layer=POLY_cond $X=0.94 $Y=1.202
+ $X2=0.965 $Y2=1.202
r160 54 56 48.462 $w=3.68e-07 $l=3.7e-07 $layer=POLY_cond $X=0.57 $Y=1.202
+ $X2=0.94 $Y2=1.202
r161 54 55 29.056 $w=1.7e-07 $l=8.5e-07 $layer=licon1_POLY $count=5 $X=0.57
+ $Y=1.16 $X2=0.57 $Y2=1.16
r162 52 54 6.54891 $w=3.68e-07 $l=5e-08 $layer=POLY_cond $X=0.52 $Y=1.202
+ $X2=0.57 $Y2=1.202
r163 51 52 3.27446 $w=3.68e-07 $l=2.5e-08 $layer=POLY_cond $X=0.495 $Y=1.202
+ $X2=0.52 $Y2=1.202
r164 49 70 82.3896 $w=2.08e-07 $l=1.56e-06 $layer=LI1_cond $X=2.07 $Y=1.18
+ $X2=3.63 $Y2=1.18
r165 49 55 79.2208 $w=2.08e-07 $l=1.5e-06 $layer=LI1_cond $X=2.07 $Y=1.18
+ $X2=0.57 $Y2=1.18
r166 46 72 19.486 $w=1.8e-07 $l=2.08e-07 $layer=POLY_cond $X=3.785 $Y=1.41
+ $X2=3.785 $Y2=1.202
r167 46 48 153.972 $w=1.8e-07 $l=5.75e-07 $layer=POLY_cond $X=3.785 $Y=1.41
+ $X2=3.785 $Y2=1.985
r168 43 71 23.8357 $w=1.5e-07 $l=2.07e-07 $layer=POLY_cond $X=3.76 $Y=0.995
+ $X2=3.76 $Y2=1.202
r169 43 45 139.78 $w=1.5e-07 $l=4.35e-07 $layer=POLY_cond $X=3.76 $Y=0.995
+ $X2=3.76 $Y2=0.56
r170 40 67 23.8357 $w=1.5e-07 $l=2.07e-07 $layer=POLY_cond $X=3.34 $Y=0.995
+ $X2=3.34 $Y2=1.202
r171 40 42 139.78 $w=1.5e-07 $l=4.35e-07 $layer=POLY_cond $X=3.34 $Y=0.995
+ $X2=3.34 $Y2=0.56
r172 37 66 19.486 $w=1.8e-07 $l=2.08e-07 $layer=POLY_cond $X=3.315 $Y=1.41
+ $X2=3.315 $Y2=1.202
r173 37 39 153.972 $w=1.8e-07 $l=5.75e-07 $layer=POLY_cond $X=3.315 $Y=1.41
+ $X2=3.315 $Y2=1.985
r174 34 65 19.486 $w=1.8e-07 $l=2.08e-07 $layer=POLY_cond $X=2.845 $Y=1.41
+ $X2=2.845 $Y2=1.202
r175 34 36 153.972 $w=1.8e-07 $l=5.75e-07 $layer=POLY_cond $X=2.845 $Y=1.41
+ $X2=2.845 $Y2=1.985
r176 31 64 23.8357 $w=1.5e-07 $l=2.07e-07 $layer=POLY_cond $X=2.82 $Y=0.995
+ $X2=2.82 $Y2=1.202
r177 31 33 139.78 $w=1.5e-07 $l=4.35e-07 $layer=POLY_cond $X=2.82 $Y=0.995
+ $X2=2.82 $Y2=0.56
r178 28 63 23.8357 $w=1.5e-07 $l=2.07e-07 $layer=POLY_cond $X=2.4 $Y=0.995
+ $X2=2.4 $Y2=1.202
r179 28 30 139.78 $w=1.5e-07 $l=4.35e-07 $layer=POLY_cond $X=2.4 $Y=0.995
+ $X2=2.4 $Y2=0.56
r180 25 62 19.486 $w=1.8e-07 $l=2.08e-07 $layer=POLY_cond $X=2.375 $Y=1.41
+ $X2=2.375 $Y2=1.202
r181 25 27 153.972 $w=1.8e-07 $l=5.75e-07 $layer=POLY_cond $X=2.375 $Y=1.41
+ $X2=2.375 $Y2=1.985
r182 22 61 19.486 $w=1.8e-07 $l=2.08e-07 $layer=POLY_cond $X=1.905 $Y=1.41
+ $X2=1.905 $Y2=1.202
r183 22 24 153.972 $w=1.8e-07 $l=5.75e-07 $layer=POLY_cond $X=1.905 $Y=1.41
+ $X2=1.905 $Y2=1.985
r184 19 60 23.8357 $w=1.5e-07 $l=2.07e-07 $layer=POLY_cond $X=1.88 $Y=0.995
+ $X2=1.88 $Y2=1.202
r185 19 21 139.78 $w=1.5e-07 $l=4.35e-07 $layer=POLY_cond $X=1.88 $Y=0.995
+ $X2=1.88 $Y2=0.56
r186 16 59 23.8357 $w=1.5e-07 $l=2.07e-07 $layer=POLY_cond $X=1.46 $Y=0.995
+ $X2=1.46 $Y2=1.202
r187 16 18 139.78 $w=1.5e-07 $l=4.35e-07 $layer=POLY_cond $X=1.46 $Y=0.995
+ $X2=1.46 $Y2=0.56
r188 13 58 19.486 $w=1.8e-07 $l=2.08e-07 $layer=POLY_cond $X=1.435 $Y=1.41
+ $X2=1.435 $Y2=1.202
r189 13 15 153.972 $w=1.8e-07 $l=5.75e-07 $layer=POLY_cond $X=1.435 $Y=1.41
+ $X2=1.435 $Y2=1.985
r190 10 57 19.486 $w=1.8e-07 $l=2.08e-07 $layer=POLY_cond $X=0.965 $Y=1.41
+ $X2=0.965 $Y2=1.202
r191 10 12 153.972 $w=1.8e-07 $l=5.75e-07 $layer=POLY_cond $X=0.965 $Y=1.41
+ $X2=0.965 $Y2=1.985
r192 7 56 23.8357 $w=1.5e-07 $l=2.07e-07 $layer=POLY_cond $X=0.94 $Y=0.995
+ $X2=0.94 $Y2=1.202
r193 7 9 139.78 $w=1.5e-07 $l=4.35e-07 $layer=POLY_cond $X=0.94 $Y=0.995
+ $X2=0.94 $Y2=0.56
r194 4 52 23.8357 $w=1.5e-07 $l=2.07e-07 $layer=POLY_cond $X=0.52 $Y=0.995
+ $X2=0.52 $Y2=1.202
r195 4 6 139.78 $w=1.5e-07 $l=4.35e-07 $layer=POLY_cond $X=0.52 $Y=0.995
+ $X2=0.52 $Y2=0.56
r196 1 51 19.486 $w=1.8e-07 $l=2.08e-07 $layer=POLY_cond $X=0.495 $Y=1.41
+ $X2=0.495 $Y2=1.202
r197 1 3 153.972 $w=1.8e-07 $l=5.75e-07 $layer=POLY_cond $X=0.495 $Y=1.41
+ $X2=0.495 $Y2=1.985
.ends

.subckt PM_SKY130_FD_SC_HDLL__NOR4_8%B 1 3 4 6 7 9 10 12 13 15 16 18 19 21 22 24
+ 25 27 28 30 31 33 34 36 37 39 40 42 43 45 46 48 49 70 71
r146 71 72 3.27446 $w=3.68e-07 $l=2.5e-08 $layer=POLY_cond $X=7.52 $Y=1.202
+ $X2=7.545 $Y2=1.202
r147 69 71 6.54891 $w=3.68e-07 $l=5e-08 $layer=POLY_cond $X=7.47 $Y=1.202
+ $X2=7.52 $Y2=1.202
r148 69 70 29.056 $w=1.7e-07 $l=8.5e-07 $layer=licon1_POLY $count=5 $X=7.47
+ $Y=1.16 $X2=7.47 $Y2=1.16
r149 67 69 48.462 $w=3.68e-07 $l=3.7e-07 $layer=POLY_cond $X=7.1 $Y=1.202
+ $X2=7.47 $Y2=1.202
r150 66 67 3.27446 $w=3.68e-07 $l=2.5e-08 $layer=POLY_cond $X=7.075 $Y=1.202
+ $X2=7.1 $Y2=1.202
r151 65 66 61.5598 $w=3.68e-07 $l=4.7e-07 $layer=POLY_cond $X=6.605 $Y=1.202
+ $X2=7.075 $Y2=1.202
r152 64 65 3.27446 $w=3.68e-07 $l=2.5e-08 $layer=POLY_cond $X=6.58 $Y=1.202
+ $X2=6.605 $Y2=1.202
r153 63 64 55.0109 $w=3.68e-07 $l=4.2e-07 $layer=POLY_cond $X=6.16 $Y=1.202
+ $X2=6.58 $Y2=1.202
r154 62 63 3.27446 $w=3.68e-07 $l=2.5e-08 $layer=POLY_cond $X=6.135 $Y=1.202
+ $X2=6.16 $Y2=1.202
r155 61 62 61.5598 $w=3.68e-07 $l=4.7e-07 $layer=POLY_cond $X=5.665 $Y=1.202
+ $X2=6.135 $Y2=1.202
r156 60 61 3.27446 $w=3.68e-07 $l=2.5e-08 $layer=POLY_cond $X=5.64 $Y=1.202
+ $X2=5.665 $Y2=1.202
r157 59 60 55.0109 $w=3.68e-07 $l=4.2e-07 $layer=POLY_cond $X=5.22 $Y=1.202
+ $X2=5.64 $Y2=1.202
r158 58 59 3.27446 $w=3.68e-07 $l=2.5e-08 $layer=POLY_cond $X=5.195 $Y=1.202
+ $X2=5.22 $Y2=1.202
r159 57 58 61.5598 $w=3.68e-07 $l=4.7e-07 $layer=POLY_cond $X=4.725 $Y=1.202
+ $X2=5.195 $Y2=1.202
r160 56 57 3.27446 $w=3.68e-07 $l=2.5e-08 $layer=POLY_cond $X=4.7 $Y=1.202
+ $X2=4.725 $Y2=1.202
r161 54 56 37.9837 $w=3.68e-07 $l=2.9e-07 $layer=POLY_cond $X=4.41 $Y=1.202
+ $X2=4.7 $Y2=1.202
r162 54 55 29.056 $w=1.7e-07 $l=8.5e-07 $layer=licon1_POLY $count=5 $X=4.41
+ $Y=1.16 $X2=4.41 $Y2=1.16
r163 52 54 17.0272 $w=3.68e-07 $l=1.3e-07 $layer=POLY_cond $X=4.28 $Y=1.202
+ $X2=4.41 $Y2=1.202
r164 51 52 3.27446 $w=3.68e-07 $l=2.5e-08 $layer=POLY_cond $X=4.255 $Y=1.202
+ $X2=4.28 $Y2=1.202
r165 49 70 90.8398 $w=2.08e-07 $l=1.72e-06 $layer=LI1_cond $X=5.75 $Y=1.18
+ $X2=7.47 $Y2=1.18
r166 49 55 70.7706 $w=2.08e-07 $l=1.34e-06 $layer=LI1_cond $X=5.75 $Y=1.18
+ $X2=4.41 $Y2=1.18
r167 46 72 19.486 $w=1.8e-07 $l=2.08e-07 $layer=POLY_cond $X=7.545 $Y=1.41
+ $X2=7.545 $Y2=1.202
r168 46 48 153.972 $w=1.8e-07 $l=5.75e-07 $layer=POLY_cond $X=7.545 $Y=1.41
+ $X2=7.545 $Y2=1.985
r169 43 71 23.8357 $w=1.5e-07 $l=2.07e-07 $layer=POLY_cond $X=7.52 $Y=0.995
+ $X2=7.52 $Y2=1.202
r170 43 45 139.78 $w=1.5e-07 $l=4.35e-07 $layer=POLY_cond $X=7.52 $Y=0.995
+ $X2=7.52 $Y2=0.56
r171 40 67 23.8357 $w=1.5e-07 $l=2.07e-07 $layer=POLY_cond $X=7.1 $Y=0.995
+ $X2=7.1 $Y2=1.202
r172 40 42 139.78 $w=1.5e-07 $l=4.35e-07 $layer=POLY_cond $X=7.1 $Y=0.995
+ $X2=7.1 $Y2=0.56
r173 37 66 19.486 $w=1.8e-07 $l=2.08e-07 $layer=POLY_cond $X=7.075 $Y=1.41
+ $X2=7.075 $Y2=1.202
r174 37 39 153.972 $w=1.8e-07 $l=5.75e-07 $layer=POLY_cond $X=7.075 $Y=1.41
+ $X2=7.075 $Y2=1.985
r175 34 65 19.486 $w=1.8e-07 $l=2.08e-07 $layer=POLY_cond $X=6.605 $Y=1.41
+ $X2=6.605 $Y2=1.202
r176 34 36 153.972 $w=1.8e-07 $l=5.75e-07 $layer=POLY_cond $X=6.605 $Y=1.41
+ $X2=6.605 $Y2=1.985
r177 31 64 23.8357 $w=1.5e-07 $l=2.07e-07 $layer=POLY_cond $X=6.58 $Y=0.995
+ $X2=6.58 $Y2=1.202
r178 31 33 139.78 $w=1.5e-07 $l=4.35e-07 $layer=POLY_cond $X=6.58 $Y=0.995
+ $X2=6.58 $Y2=0.56
r179 28 63 23.8357 $w=1.5e-07 $l=2.07e-07 $layer=POLY_cond $X=6.16 $Y=0.995
+ $X2=6.16 $Y2=1.202
r180 28 30 139.78 $w=1.5e-07 $l=4.35e-07 $layer=POLY_cond $X=6.16 $Y=0.995
+ $X2=6.16 $Y2=0.56
r181 25 62 19.486 $w=1.8e-07 $l=2.08e-07 $layer=POLY_cond $X=6.135 $Y=1.41
+ $X2=6.135 $Y2=1.202
r182 25 27 153.972 $w=1.8e-07 $l=5.75e-07 $layer=POLY_cond $X=6.135 $Y=1.41
+ $X2=6.135 $Y2=1.985
r183 22 61 19.486 $w=1.8e-07 $l=2.08e-07 $layer=POLY_cond $X=5.665 $Y=1.41
+ $X2=5.665 $Y2=1.202
r184 22 24 153.972 $w=1.8e-07 $l=5.75e-07 $layer=POLY_cond $X=5.665 $Y=1.41
+ $X2=5.665 $Y2=1.985
r185 19 60 23.8357 $w=1.5e-07 $l=2.07e-07 $layer=POLY_cond $X=5.64 $Y=0.995
+ $X2=5.64 $Y2=1.202
r186 19 21 139.78 $w=1.5e-07 $l=4.35e-07 $layer=POLY_cond $X=5.64 $Y=0.995
+ $X2=5.64 $Y2=0.56
r187 16 59 23.8357 $w=1.5e-07 $l=2.07e-07 $layer=POLY_cond $X=5.22 $Y=0.995
+ $X2=5.22 $Y2=1.202
r188 16 18 139.78 $w=1.5e-07 $l=4.35e-07 $layer=POLY_cond $X=5.22 $Y=0.995
+ $X2=5.22 $Y2=0.56
r189 13 58 19.486 $w=1.8e-07 $l=2.08e-07 $layer=POLY_cond $X=5.195 $Y=1.41
+ $X2=5.195 $Y2=1.202
r190 13 15 153.972 $w=1.8e-07 $l=5.75e-07 $layer=POLY_cond $X=5.195 $Y=1.41
+ $X2=5.195 $Y2=1.985
r191 10 57 19.486 $w=1.8e-07 $l=2.08e-07 $layer=POLY_cond $X=4.725 $Y=1.41
+ $X2=4.725 $Y2=1.202
r192 10 12 153.972 $w=1.8e-07 $l=5.75e-07 $layer=POLY_cond $X=4.725 $Y=1.41
+ $X2=4.725 $Y2=1.985
r193 7 56 23.8357 $w=1.5e-07 $l=2.07e-07 $layer=POLY_cond $X=4.7 $Y=0.995
+ $X2=4.7 $Y2=1.202
r194 7 9 139.78 $w=1.5e-07 $l=4.35e-07 $layer=POLY_cond $X=4.7 $Y=0.995 $X2=4.7
+ $Y2=0.56
r195 4 52 23.8357 $w=1.5e-07 $l=2.07e-07 $layer=POLY_cond $X=4.28 $Y=0.995
+ $X2=4.28 $Y2=1.202
r196 4 6 139.78 $w=1.5e-07 $l=4.35e-07 $layer=POLY_cond $X=4.28 $Y=0.995
+ $X2=4.28 $Y2=0.56
r197 1 51 19.486 $w=1.8e-07 $l=2.08e-07 $layer=POLY_cond $X=4.255 $Y=1.41
+ $X2=4.255 $Y2=1.202
r198 1 3 153.972 $w=1.8e-07 $l=5.75e-07 $layer=POLY_cond $X=4.255 $Y=1.41
+ $X2=4.255 $Y2=1.985
.ends

.subckt PM_SKY130_FD_SC_HDLL__NOR4_8%C 1 3 4 6 7 9 10 12 13 15 16 18 19 21 22 24
+ 25 27 28 30 31 33 34 36 37 39 40 42 43 45 46 48 49 70 71
r149 71 72 3.27446 $w=3.68e-07 $l=2.5e-08 $layer=POLY_cond $X=11.8 $Y=1.202
+ $X2=11.825 $Y2=1.202
r150 69 71 17.0272 $w=3.68e-07 $l=1.3e-07 $layer=POLY_cond $X=11.67 $Y=1.202
+ $X2=11.8 $Y2=1.202
r151 69 70 29.056 $w=1.7e-07 $l=8.5e-07 $layer=licon1_POLY $count=5 $X=11.67
+ $Y=1.16 $X2=11.67 $Y2=1.16
r152 67 69 37.9837 $w=3.68e-07 $l=2.9e-07 $layer=POLY_cond $X=11.38 $Y=1.202
+ $X2=11.67 $Y2=1.202
r153 66 67 3.27446 $w=3.68e-07 $l=2.5e-08 $layer=POLY_cond $X=11.355 $Y=1.202
+ $X2=11.38 $Y2=1.202
r154 65 66 61.5598 $w=3.68e-07 $l=4.7e-07 $layer=POLY_cond $X=10.885 $Y=1.202
+ $X2=11.355 $Y2=1.202
r155 64 65 3.27446 $w=3.68e-07 $l=2.5e-08 $layer=POLY_cond $X=10.86 $Y=1.202
+ $X2=10.885 $Y2=1.202
r156 63 64 55.0109 $w=3.68e-07 $l=4.2e-07 $layer=POLY_cond $X=10.44 $Y=1.202
+ $X2=10.86 $Y2=1.202
r157 62 63 3.27446 $w=3.68e-07 $l=2.5e-08 $layer=POLY_cond $X=10.415 $Y=1.202
+ $X2=10.44 $Y2=1.202
r158 61 62 61.5598 $w=3.68e-07 $l=4.7e-07 $layer=POLY_cond $X=9.945 $Y=1.202
+ $X2=10.415 $Y2=1.202
r159 60 61 3.27446 $w=3.68e-07 $l=2.5e-08 $layer=POLY_cond $X=9.92 $Y=1.202
+ $X2=9.945 $Y2=1.202
r160 59 60 55.0109 $w=3.68e-07 $l=4.2e-07 $layer=POLY_cond $X=9.5 $Y=1.202
+ $X2=9.92 $Y2=1.202
r161 58 59 3.27446 $w=3.68e-07 $l=2.5e-08 $layer=POLY_cond $X=9.475 $Y=1.202
+ $X2=9.5 $Y2=1.202
r162 57 58 61.5598 $w=3.68e-07 $l=4.7e-07 $layer=POLY_cond $X=9.005 $Y=1.202
+ $X2=9.475 $Y2=1.202
r163 56 57 3.27446 $w=3.68e-07 $l=2.5e-08 $layer=POLY_cond $X=8.98 $Y=1.202
+ $X2=9.005 $Y2=1.202
r164 54 56 48.462 $w=3.68e-07 $l=3.7e-07 $layer=POLY_cond $X=8.61 $Y=1.202
+ $X2=8.98 $Y2=1.202
r165 54 55 29.056 $w=1.7e-07 $l=8.5e-07 $layer=licon1_POLY $count=5 $X=8.61
+ $Y=1.16 $X2=8.61 $Y2=1.16
r166 52 54 6.54891 $w=3.68e-07 $l=5e-08 $layer=POLY_cond $X=8.56 $Y=1.202
+ $X2=8.61 $Y2=1.202
r167 51 52 3.27446 $w=3.68e-07 $l=2.5e-08 $layer=POLY_cond $X=8.535 $Y=1.202
+ $X2=8.56 $Y2=1.202
r168 49 70 69.7143 $w=2.08e-07 $l=1.32e-06 $layer=LI1_cond $X=10.35 $Y=1.18
+ $X2=11.67 $Y2=1.18
r169 49 55 91.8961 $w=2.08e-07 $l=1.74e-06 $layer=LI1_cond $X=10.35 $Y=1.18
+ $X2=8.61 $Y2=1.18
r170 46 72 19.486 $w=1.8e-07 $l=2.08e-07 $layer=POLY_cond $X=11.825 $Y=1.41
+ $X2=11.825 $Y2=1.202
r171 46 48 153.972 $w=1.8e-07 $l=5.75e-07 $layer=POLY_cond $X=11.825 $Y=1.41
+ $X2=11.825 $Y2=1.985
r172 43 71 23.8357 $w=1.5e-07 $l=2.07e-07 $layer=POLY_cond $X=11.8 $Y=0.995
+ $X2=11.8 $Y2=1.202
r173 43 45 139.78 $w=1.5e-07 $l=4.35e-07 $layer=POLY_cond $X=11.8 $Y=0.995
+ $X2=11.8 $Y2=0.56
r174 40 67 23.8357 $w=1.5e-07 $l=2.07e-07 $layer=POLY_cond $X=11.38 $Y=0.995
+ $X2=11.38 $Y2=1.202
r175 40 42 139.78 $w=1.5e-07 $l=4.35e-07 $layer=POLY_cond $X=11.38 $Y=0.995
+ $X2=11.38 $Y2=0.56
r176 37 66 19.486 $w=1.8e-07 $l=2.08e-07 $layer=POLY_cond $X=11.355 $Y=1.41
+ $X2=11.355 $Y2=1.202
r177 37 39 153.972 $w=1.8e-07 $l=5.75e-07 $layer=POLY_cond $X=11.355 $Y=1.41
+ $X2=11.355 $Y2=1.985
r178 34 65 19.486 $w=1.8e-07 $l=2.08e-07 $layer=POLY_cond $X=10.885 $Y=1.41
+ $X2=10.885 $Y2=1.202
r179 34 36 153.972 $w=1.8e-07 $l=5.75e-07 $layer=POLY_cond $X=10.885 $Y=1.41
+ $X2=10.885 $Y2=1.985
r180 31 64 23.8357 $w=1.5e-07 $l=2.07e-07 $layer=POLY_cond $X=10.86 $Y=0.995
+ $X2=10.86 $Y2=1.202
r181 31 33 139.78 $w=1.5e-07 $l=4.35e-07 $layer=POLY_cond $X=10.86 $Y=0.995
+ $X2=10.86 $Y2=0.56
r182 28 63 23.8357 $w=1.5e-07 $l=2.07e-07 $layer=POLY_cond $X=10.44 $Y=0.995
+ $X2=10.44 $Y2=1.202
r183 28 30 139.78 $w=1.5e-07 $l=4.35e-07 $layer=POLY_cond $X=10.44 $Y=0.995
+ $X2=10.44 $Y2=0.56
r184 25 62 19.486 $w=1.8e-07 $l=2.08e-07 $layer=POLY_cond $X=10.415 $Y=1.41
+ $X2=10.415 $Y2=1.202
r185 25 27 153.972 $w=1.8e-07 $l=5.75e-07 $layer=POLY_cond $X=10.415 $Y=1.41
+ $X2=10.415 $Y2=1.985
r186 22 61 19.486 $w=1.8e-07 $l=2.08e-07 $layer=POLY_cond $X=9.945 $Y=1.41
+ $X2=9.945 $Y2=1.202
r187 22 24 153.972 $w=1.8e-07 $l=5.75e-07 $layer=POLY_cond $X=9.945 $Y=1.41
+ $X2=9.945 $Y2=1.985
r188 19 60 23.8357 $w=1.5e-07 $l=2.07e-07 $layer=POLY_cond $X=9.92 $Y=0.995
+ $X2=9.92 $Y2=1.202
r189 19 21 139.78 $w=1.5e-07 $l=4.35e-07 $layer=POLY_cond $X=9.92 $Y=0.995
+ $X2=9.92 $Y2=0.56
r190 16 59 23.8357 $w=1.5e-07 $l=2.07e-07 $layer=POLY_cond $X=9.5 $Y=0.995
+ $X2=9.5 $Y2=1.202
r191 16 18 139.78 $w=1.5e-07 $l=4.35e-07 $layer=POLY_cond $X=9.5 $Y=0.995
+ $X2=9.5 $Y2=0.56
r192 13 58 19.486 $w=1.8e-07 $l=2.08e-07 $layer=POLY_cond $X=9.475 $Y=1.41
+ $X2=9.475 $Y2=1.202
r193 13 15 153.972 $w=1.8e-07 $l=5.75e-07 $layer=POLY_cond $X=9.475 $Y=1.41
+ $X2=9.475 $Y2=1.985
r194 10 57 19.486 $w=1.8e-07 $l=2.08e-07 $layer=POLY_cond $X=9.005 $Y=1.41
+ $X2=9.005 $Y2=1.202
r195 10 12 153.972 $w=1.8e-07 $l=5.75e-07 $layer=POLY_cond $X=9.005 $Y=1.41
+ $X2=9.005 $Y2=1.985
r196 7 56 23.8357 $w=1.5e-07 $l=2.07e-07 $layer=POLY_cond $X=8.98 $Y=0.995
+ $X2=8.98 $Y2=1.202
r197 7 9 139.78 $w=1.5e-07 $l=4.35e-07 $layer=POLY_cond $X=8.98 $Y=0.995
+ $X2=8.98 $Y2=0.56
r198 4 52 23.8357 $w=1.5e-07 $l=2.07e-07 $layer=POLY_cond $X=8.56 $Y=0.995
+ $X2=8.56 $Y2=1.202
r199 4 6 139.78 $w=1.5e-07 $l=4.35e-07 $layer=POLY_cond $X=8.56 $Y=0.995
+ $X2=8.56 $Y2=0.56
r200 1 51 19.486 $w=1.8e-07 $l=2.08e-07 $layer=POLY_cond $X=8.535 $Y=1.41
+ $X2=8.535 $Y2=1.202
r201 1 3 153.972 $w=1.8e-07 $l=5.75e-07 $layer=POLY_cond $X=8.535 $Y=1.41
+ $X2=8.535 $Y2=1.985
.ends

.subckt PM_SKY130_FD_SC_HDLL__NOR4_8%D 1 3 4 6 7 9 10 12 13 15 16 18 19 21 22 24
+ 25 27 28 30 31 33 34 36 37 39 40 42 43 45 46 48 49 70 71
r140 71 72 3.27446 $w=3.68e-07 $l=2.5e-08 $layer=POLY_cond $X=15.56 $Y=1.202
+ $X2=15.585 $Y2=1.202
r141 69 71 48.462 $w=3.68e-07 $l=3.7e-07 $layer=POLY_cond $X=15.19 $Y=1.202
+ $X2=15.56 $Y2=1.202
r142 69 70 41.5086 $w=1.7e-07 $l=5.95e-07 $layer=licon1_POLY $count=3 $X=15.19
+ $Y=1.16 $X2=15.19 $Y2=1.16
r143 67 69 6.54891 $w=3.68e-07 $l=5e-08 $layer=POLY_cond $X=15.14 $Y=1.202
+ $X2=15.19 $Y2=1.202
r144 66 67 3.27446 $w=3.68e-07 $l=2.5e-08 $layer=POLY_cond $X=15.115 $Y=1.202
+ $X2=15.14 $Y2=1.202
r145 65 66 61.5598 $w=3.68e-07 $l=4.7e-07 $layer=POLY_cond $X=14.645 $Y=1.202
+ $X2=15.115 $Y2=1.202
r146 64 65 3.27446 $w=3.68e-07 $l=2.5e-08 $layer=POLY_cond $X=14.62 $Y=1.202
+ $X2=14.645 $Y2=1.202
r147 63 64 55.0109 $w=3.68e-07 $l=4.2e-07 $layer=POLY_cond $X=14.2 $Y=1.202
+ $X2=14.62 $Y2=1.202
r148 62 63 3.27446 $w=3.68e-07 $l=2.5e-08 $layer=POLY_cond $X=14.175 $Y=1.202
+ $X2=14.2 $Y2=1.202
r149 61 62 61.5598 $w=3.68e-07 $l=4.7e-07 $layer=POLY_cond $X=13.705 $Y=1.202
+ $X2=14.175 $Y2=1.202
r150 60 61 3.27446 $w=3.68e-07 $l=2.5e-08 $layer=POLY_cond $X=13.68 $Y=1.202
+ $X2=13.705 $Y2=1.202
r151 59 60 55.0109 $w=3.68e-07 $l=4.2e-07 $layer=POLY_cond $X=13.26 $Y=1.202
+ $X2=13.68 $Y2=1.202
r152 58 59 3.27446 $w=3.68e-07 $l=2.5e-08 $layer=POLY_cond $X=13.235 $Y=1.202
+ $X2=13.26 $Y2=1.202
r153 56 58 11.1332 $w=3.68e-07 $l=8.5e-08 $layer=POLY_cond $X=13.15 $Y=1.202
+ $X2=13.235 $Y2=1.202
r154 56 57 41.5086 $w=1.7e-07 $l=5.95e-07 $layer=licon1_POLY $count=3 $X=13.15
+ $Y=1.16 $X2=13.15 $Y2=1.16
r155 54 56 50.4266 $w=3.68e-07 $l=3.85e-07 $layer=POLY_cond $X=12.765 $Y=1.202
+ $X2=13.15 $Y2=1.202
r156 53 54 3.27446 $w=3.68e-07 $l=2.5e-08 $layer=POLY_cond $X=12.74 $Y=1.202
+ $X2=12.765 $Y2=1.202
r157 52 53 55.0109 $w=3.68e-07 $l=4.2e-07 $layer=POLY_cond $X=12.32 $Y=1.202
+ $X2=12.74 $Y2=1.202
r158 51 52 3.27446 $w=3.68e-07 $l=2.5e-08 $layer=POLY_cond $X=12.295 $Y=1.202
+ $X2=12.32 $Y2=1.202
r159 49 70 36.9697 $w=2.08e-07 $l=7e-07 $layer=LI1_cond $X=14.49 $Y=1.18
+ $X2=15.19 $Y2=1.18
r160 49 57 70.7706 $w=2.08e-07 $l=1.34e-06 $layer=LI1_cond $X=14.49 $Y=1.18
+ $X2=13.15 $Y2=1.18
r161 46 72 19.486 $w=1.8e-07 $l=2.08e-07 $layer=POLY_cond $X=15.585 $Y=1.41
+ $X2=15.585 $Y2=1.202
r162 46 48 153.972 $w=1.8e-07 $l=5.75e-07 $layer=POLY_cond $X=15.585 $Y=1.41
+ $X2=15.585 $Y2=1.985
r163 43 71 23.8357 $w=1.5e-07 $l=2.07e-07 $layer=POLY_cond $X=15.56 $Y=0.995
+ $X2=15.56 $Y2=1.202
r164 43 45 139.78 $w=1.5e-07 $l=4.35e-07 $layer=POLY_cond $X=15.56 $Y=0.995
+ $X2=15.56 $Y2=0.56
r165 40 67 23.8357 $w=1.5e-07 $l=2.07e-07 $layer=POLY_cond $X=15.14 $Y=0.995
+ $X2=15.14 $Y2=1.202
r166 40 42 139.78 $w=1.5e-07 $l=4.35e-07 $layer=POLY_cond $X=15.14 $Y=0.995
+ $X2=15.14 $Y2=0.56
r167 37 66 19.486 $w=1.8e-07 $l=2.08e-07 $layer=POLY_cond $X=15.115 $Y=1.41
+ $X2=15.115 $Y2=1.202
r168 37 39 153.972 $w=1.8e-07 $l=5.75e-07 $layer=POLY_cond $X=15.115 $Y=1.41
+ $X2=15.115 $Y2=1.985
r169 34 65 19.486 $w=1.8e-07 $l=2.08e-07 $layer=POLY_cond $X=14.645 $Y=1.41
+ $X2=14.645 $Y2=1.202
r170 34 36 153.972 $w=1.8e-07 $l=5.75e-07 $layer=POLY_cond $X=14.645 $Y=1.41
+ $X2=14.645 $Y2=1.985
r171 31 64 23.8357 $w=1.5e-07 $l=2.07e-07 $layer=POLY_cond $X=14.62 $Y=0.995
+ $X2=14.62 $Y2=1.202
r172 31 33 139.78 $w=1.5e-07 $l=4.35e-07 $layer=POLY_cond $X=14.62 $Y=0.995
+ $X2=14.62 $Y2=0.56
r173 28 63 23.8357 $w=1.5e-07 $l=2.07e-07 $layer=POLY_cond $X=14.2 $Y=0.995
+ $X2=14.2 $Y2=1.202
r174 28 30 139.78 $w=1.5e-07 $l=4.35e-07 $layer=POLY_cond $X=14.2 $Y=0.995
+ $X2=14.2 $Y2=0.56
r175 25 62 19.486 $w=1.8e-07 $l=2.08e-07 $layer=POLY_cond $X=14.175 $Y=1.41
+ $X2=14.175 $Y2=1.202
r176 25 27 153.972 $w=1.8e-07 $l=5.75e-07 $layer=POLY_cond $X=14.175 $Y=1.41
+ $X2=14.175 $Y2=1.985
r177 22 61 19.486 $w=1.8e-07 $l=2.08e-07 $layer=POLY_cond $X=13.705 $Y=1.41
+ $X2=13.705 $Y2=1.202
r178 22 24 153.972 $w=1.8e-07 $l=5.75e-07 $layer=POLY_cond $X=13.705 $Y=1.41
+ $X2=13.705 $Y2=1.985
r179 19 60 23.8357 $w=1.5e-07 $l=2.07e-07 $layer=POLY_cond $X=13.68 $Y=0.995
+ $X2=13.68 $Y2=1.202
r180 19 21 139.78 $w=1.5e-07 $l=4.35e-07 $layer=POLY_cond $X=13.68 $Y=0.995
+ $X2=13.68 $Y2=0.56
r181 16 59 23.8357 $w=1.5e-07 $l=2.07e-07 $layer=POLY_cond $X=13.26 $Y=0.995
+ $X2=13.26 $Y2=1.202
r182 16 18 139.78 $w=1.5e-07 $l=4.35e-07 $layer=POLY_cond $X=13.26 $Y=0.995
+ $X2=13.26 $Y2=0.56
r183 13 58 19.486 $w=1.8e-07 $l=2.08e-07 $layer=POLY_cond $X=13.235 $Y=1.41
+ $X2=13.235 $Y2=1.202
r184 13 15 153.972 $w=1.8e-07 $l=5.75e-07 $layer=POLY_cond $X=13.235 $Y=1.41
+ $X2=13.235 $Y2=1.985
r185 10 54 19.486 $w=1.8e-07 $l=2.08e-07 $layer=POLY_cond $X=12.765 $Y=1.41
+ $X2=12.765 $Y2=1.202
r186 10 12 153.972 $w=1.8e-07 $l=5.75e-07 $layer=POLY_cond $X=12.765 $Y=1.41
+ $X2=12.765 $Y2=1.985
r187 7 53 23.8357 $w=1.5e-07 $l=2.07e-07 $layer=POLY_cond $X=12.74 $Y=0.995
+ $X2=12.74 $Y2=1.202
r188 7 9 139.78 $w=1.5e-07 $l=4.35e-07 $layer=POLY_cond $X=12.74 $Y=0.995
+ $X2=12.74 $Y2=0.56
r189 4 52 23.8357 $w=1.5e-07 $l=2.07e-07 $layer=POLY_cond $X=12.32 $Y=0.995
+ $X2=12.32 $Y2=1.202
r190 4 6 139.78 $w=1.5e-07 $l=4.35e-07 $layer=POLY_cond $X=12.32 $Y=0.995
+ $X2=12.32 $Y2=0.56
r191 1 51 19.486 $w=1.8e-07 $l=2.08e-07 $layer=POLY_cond $X=12.295 $Y=1.41
+ $X2=12.295 $Y2=1.202
r192 1 3 153.972 $w=1.8e-07 $l=5.75e-07 $layer=POLY_cond $X=12.295 $Y=1.41
+ $X2=12.295 $Y2=1.985
.ends

.subckt PM_SKY130_FD_SC_HDLL__NOR4_8%A_27_297# 1 2 3 4 5 6 7 8 9 30 34 35 38 40
+ 44 46 50 52 54 55 56 60 62 66 68 72 74 78 81 83 85 90 91 92
r118 76 78 13.3127 $w=2.88e-07 $l=3.35e-07 $layer=LI1_cond $X=7.8 $Y=2.295
+ $X2=7.8 $Y2=1.96
r119 75 92 7.02821 $w=1.7e-07 $l=1.25e-07 $layer=LI1_cond $X=6.965 $Y=2.38
+ $X2=6.84 $Y2=2.38
r120 74 76 7.43784 $w=1.7e-07 $l=1.8262e-07 $layer=LI1_cond $X=7.655 $Y=2.38
+ $X2=7.8 $Y2=2.295
r121 74 75 45.016 $w=1.68e-07 $l=6.9e-07 $layer=LI1_cond $X=7.655 $Y=2.38
+ $X2=6.965 $Y2=2.38
r122 70 92 0.00168595 $w=2.5e-07 $l=8.5e-08 $layer=LI1_cond $X=6.84 $Y=2.295
+ $X2=6.84 $Y2=2.38
r123 70 72 15.4427 $w=2.48e-07 $l=3.35e-07 $layer=LI1_cond $X=6.84 $Y=2.295
+ $X2=6.84 $Y2=1.96
r124 69 91 7.02821 $w=1.7e-07 $l=1.25e-07 $layer=LI1_cond $X=6.025 $Y=2.38
+ $X2=5.9 $Y2=2.38
r125 68 92 7.02821 $w=1.7e-07 $l=1.25e-07 $layer=LI1_cond $X=6.715 $Y=2.38
+ $X2=6.84 $Y2=2.38
r126 68 69 45.016 $w=1.68e-07 $l=6.9e-07 $layer=LI1_cond $X=6.715 $Y=2.38
+ $X2=6.025 $Y2=2.38
r127 64 91 0.00168595 $w=2.5e-07 $l=8.5e-08 $layer=LI1_cond $X=5.9 $Y=2.295
+ $X2=5.9 $Y2=2.38
r128 64 66 15.4427 $w=2.48e-07 $l=3.35e-07 $layer=LI1_cond $X=5.9 $Y=2.295
+ $X2=5.9 $Y2=1.96
r129 63 90 7.02821 $w=1.7e-07 $l=1.25e-07 $layer=LI1_cond $X=5.085 $Y=2.38
+ $X2=4.96 $Y2=2.38
r130 62 91 7.02821 $w=1.7e-07 $l=1.25e-07 $layer=LI1_cond $X=5.775 $Y=2.38
+ $X2=5.9 $Y2=2.38
r131 62 63 45.016 $w=1.68e-07 $l=6.9e-07 $layer=LI1_cond $X=5.775 $Y=2.38
+ $X2=5.085 $Y2=2.38
r132 58 90 0.00168595 $w=2.5e-07 $l=8.5e-08 $layer=LI1_cond $X=4.96 $Y=2.295
+ $X2=4.96 $Y2=2.38
r133 58 60 15.4427 $w=2.48e-07 $l=3.35e-07 $layer=LI1_cond $X=4.96 $Y=2.295
+ $X2=4.96 $Y2=1.96
r134 57 89 4.25188 $w=1.7e-07 $l=1.25e-07 $layer=LI1_cond $X=4.145 $Y=2.38
+ $X2=4.02 $Y2=2.38
r135 56 90 7.02821 $w=1.7e-07 $l=1.25e-07 $layer=LI1_cond $X=4.835 $Y=2.38
+ $X2=4.96 $Y2=2.38
r136 56 57 45.016 $w=1.68e-07 $l=6.9e-07 $layer=LI1_cond $X=4.835 $Y=2.38
+ $X2=4.145 $Y2=2.38
r137 55 89 2.89128 $w=2.5e-07 $l=8.5e-08 $layer=LI1_cond $X=4.02 $Y=2.295
+ $X2=4.02 $Y2=2.38
r138 54 87 2.89128 $w=2.5e-07 $l=8.5e-08 $layer=LI1_cond $X=4.02 $Y=1.625
+ $X2=4.02 $Y2=1.54
r139 54 55 30.8855 $w=2.48e-07 $l=6.7e-07 $layer=LI1_cond $X=4.02 $Y=1.625
+ $X2=4.02 $Y2=2.295
r140 53 85 7.02821 $w=1.7e-07 $l=1.25e-07 $layer=LI1_cond $X=3.205 $Y=1.54
+ $X2=3.08 $Y2=1.54
r141 52 87 4.25188 $w=1.7e-07 $l=1.25e-07 $layer=LI1_cond $X=3.895 $Y=1.54
+ $X2=4.02 $Y2=1.54
r142 52 53 45.016 $w=1.68e-07 $l=6.9e-07 $layer=LI1_cond $X=3.895 $Y=1.54
+ $X2=3.205 $Y2=1.54
r143 48 85 0.00168595 $w=2.5e-07 $l=8.5e-08 $layer=LI1_cond $X=3.08 $Y=1.625
+ $X2=3.08 $Y2=1.54
r144 48 50 31.116 $w=2.48e-07 $l=6.75e-07 $layer=LI1_cond $X=3.08 $Y=1.625
+ $X2=3.08 $Y2=2.3
r145 47 83 7.02821 $w=1.7e-07 $l=1.25e-07 $layer=LI1_cond $X=2.265 $Y=1.54
+ $X2=2.14 $Y2=1.54
r146 46 85 7.02821 $w=1.7e-07 $l=1.25e-07 $layer=LI1_cond $X=2.955 $Y=1.54
+ $X2=3.08 $Y2=1.54
r147 46 47 45.016 $w=1.68e-07 $l=6.9e-07 $layer=LI1_cond $X=2.955 $Y=1.54
+ $X2=2.265 $Y2=1.54
r148 42 83 0.00168595 $w=2.5e-07 $l=8.5e-08 $layer=LI1_cond $X=2.14 $Y=1.625
+ $X2=2.14 $Y2=1.54
r149 42 44 31.116 $w=2.48e-07 $l=6.75e-07 $layer=LI1_cond $X=2.14 $Y=1.625
+ $X2=2.14 $Y2=2.3
r150 41 81 7.02821 $w=1.7e-07 $l=1.25e-07 $layer=LI1_cond $X=1.325 $Y=1.54
+ $X2=1.2 $Y2=1.54
r151 40 83 7.02821 $w=1.7e-07 $l=1.25e-07 $layer=LI1_cond $X=2.015 $Y=1.54
+ $X2=2.14 $Y2=1.54
r152 40 41 45.016 $w=1.68e-07 $l=6.9e-07 $layer=LI1_cond $X=2.015 $Y=1.54
+ $X2=1.325 $Y2=1.54
r153 36 81 0.00168595 $w=2.5e-07 $l=8.5e-08 $layer=LI1_cond $X=1.2 $Y=1.625
+ $X2=1.2 $Y2=1.54
r154 36 38 31.116 $w=2.48e-07 $l=6.75e-07 $layer=LI1_cond $X=1.2 $Y=1.625
+ $X2=1.2 $Y2=2.3
r155 34 81 7.02821 $w=1.7e-07 $l=1.25e-07 $layer=LI1_cond $X=1.075 $Y=1.54
+ $X2=1.2 $Y2=1.54
r156 34 35 42.4064 $w=1.68e-07 $l=6.5e-07 $layer=LI1_cond $X=1.075 $Y=1.54
+ $X2=0.425 $Y2=1.54
r157 30 32 23.7473 $w=3.28e-07 $l=6.8e-07 $layer=LI1_cond $X=0.26 $Y=1.63
+ $X2=0.26 $Y2=2.31
r158 28 35 7.76618 $w=1.7e-07 $l=2.03101e-07 $layer=LI1_cond $X=0.26 $Y=1.625
+ $X2=0.425 $Y2=1.54
r159 28 30 0.174613 $w=3.28e-07 $l=5e-09 $layer=LI1_cond $X=0.26 $Y=1.625
+ $X2=0.26 $Y2=1.63
r160 9 78 300 $w=1.7e-07 $l=5.42679e-07 $layer=licon1_PDIFF $count=2 $X=7.635
+ $Y=1.485 $X2=7.78 $Y2=1.96
r161 8 72 300 $w=1.7e-07 $l=5.42679e-07 $layer=licon1_PDIFF $count=2 $X=6.695
+ $Y=1.485 $X2=6.84 $Y2=1.96
r162 7 66 300 $w=1.7e-07 $l=5.42679e-07 $layer=licon1_PDIFF $count=2 $X=5.755
+ $Y=1.485 $X2=5.9 $Y2=1.96
r163 6 60 300 $w=1.7e-07 $l=5.42679e-07 $layer=licon1_PDIFF $count=2 $X=4.815
+ $Y=1.485 $X2=4.96 $Y2=1.96
r164 5 89 400 $w=1.7e-07 $l=8.84534e-07 $layer=licon1_PDIFF $count=1 $X=3.875
+ $Y=1.485 $X2=4.02 $Y2=2.3
r165 5 87 400 $w=1.7e-07 $l=2.01494e-07 $layer=licon1_PDIFF $count=1 $X=3.875
+ $Y=1.485 $X2=4.02 $Y2=1.62
r166 4 85 400 $w=1.7e-07 $l=2.01494e-07 $layer=licon1_PDIFF $count=1 $X=2.935
+ $Y=1.485 $X2=3.08 $Y2=1.62
r167 4 50 400 $w=1.7e-07 $l=8.84534e-07 $layer=licon1_PDIFF $count=1 $X=2.935
+ $Y=1.485 $X2=3.08 $Y2=2.3
r168 3 83 400 $w=1.7e-07 $l=2.01494e-07 $layer=licon1_PDIFF $count=1 $X=1.995
+ $Y=1.485 $X2=2.14 $Y2=1.62
r169 3 44 400 $w=1.7e-07 $l=8.84534e-07 $layer=licon1_PDIFF $count=1 $X=1.995
+ $Y=1.485 $X2=2.14 $Y2=2.3
r170 2 81 400 $w=1.7e-07 $l=2.01494e-07 $layer=licon1_PDIFF $count=1 $X=1.055
+ $Y=1.485 $X2=1.2 $Y2=1.62
r171 2 38 400 $w=1.7e-07 $l=8.84534e-07 $layer=licon1_PDIFF $count=1 $X=1.055
+ $Y=1.485 $X2=1.2 $Y2=2.3
r172 1 32 400 $w=1.7e-07 $l=8.85297e-07 $layer=licon1_PDIFF $count=1 $X=0.135
+ $Y=1.485 $X2=0.26 $Y2=2.31
r173 1 30 400 $w=1.7e-07 $l=1.97864e-07 $layer=licon1_PDIFF $count=1 $X=0.135
+ $Y=1.485 $X2=0.26 $Y2=1.63
.ends

.subckt PM_SKY130_FD_SC_HDLL__NOR4_8%VPWR 1 2 3 4 15 17 21 23 27 29 33 35 37 47
+ 48 51 54 57 60 65
r183 60 61 4.65 $w=1.7e-07 $l=3.4e-07 $layer=mcon $count=2 $X=3.45 $Y=2.72
+ $X2=3.45 $Y2=2.72
r184 58 61 0.261778 $w=4.8e-07 $l=9.2e-07 $layer=MET1_cond $X=2.53 $Y=2.72
+ $X2=3.45 $Y2=2.72
r185 57 58 4.65 $w=1.7e-07 $l=3.4e-07 $layer=mcon $count=2 $X=2.53 $Y=2.72
+ $X2=2.53 $Y2=2.72
r186 55 58 0.261778 $w=4.8e-07 $l=9.2e-07 $layer=MET1_cond $X=1.61 $Y=2.72
+ $X2=2.53 $Y2=2.72
r187 54 55 4.65 $w=1.7e-07 $l=3.4e-07 $layer=mcon $count=2 $X=1.61 $Y=2.72
+ $X2=1.61 $Y2=2.72
r188 52 55 0.261778 $w=4.8e-07 $l=9.2e-07 $layer=MET1_cond $X=0.69 $Y=2.72
+ $X2=1.61 $Y2=2.72
r189 52 65 0.125198 $w=4.8e-07 $l=4.4e-07 $layer=MET1_cond $X=0.69 $Y=2.72
+ $X2=0.25 $Y2=2.72
r190 51 52 9.3 $w=1.7e-07 $l=1.7e-07 $layer=mcon $count=1 $X=0.69 $Y=2.72
+ $X2=0.69 $Y2=2.72
r191 47 48 0.688889 $w=1.7e-07 $l=2.295e-06 $layer=mcon $count=13 $X=15.87
+ $Y=2.72 $X2=15.87 $Y2=2.72
r192 45 48 3.40312 $w=4.8e-07 $l=1.196e-05 $layer=MET1_cond $X=3.91 $Y=2.72
+ $X2=15.87 $Y2=2.72
r193 45 61 0.130889 $w=4.8e-07 $l=4.6e-07 $layer=MET1_cond $X=3.91 $Y=2.72
+ $X2=3.45 $Y2=2.72
r194 44 47 780.278 $w=1.68e-07 $l=1.196e-05 $layer=LI1_cond $X=3.91 $Y=2.72
+ $X2=15.87 $Y2=2.72
r195 44 45 0.688889 $w=1.7e-07 $l=2.295e-06 $layer=mcon $count=13 $X=3.91
+ $Y=2.72 $X2=3.91 $Y2=2.72
r196 42 60 7.02821 $w=1.7e-07 $l=1.25e-07 $layer=LI1_cond $X=3.675 $Y=2.72
+ $X2=3.55 $Y2=2.72
r197 42 44 15.3316 $w=1.68e-07 $l=2.35e-07 $layer=LI1_cond $X=3.675 $Y=2.72
+ $X2=3.91 $Y2=2.72
r198 37 51 7.02821 $w=1.7e-07 $l=1.25e-07 $layer=LI1_cond $X=0.605 $Y=2.72
+ $X2=0.73 $Y2=2.72
r199 37 39 24.4652 $w=1.68e-07 $l=3.75e-07 $layer=LI1_cond $X=0.605 $Y=2.72
+ $X2=0.23 $Y2=2.72
r200 35 65 0.00569083 $w=4.8e-07 $l=2e-08 $layer=MET1_cond $X=0.23 $Y=2.72
+ $X2=0.25 $Y2=2.72
r201 35 39 9.3 $w=1.7e-07 $l=1.7e-07 $layer=mcon $count=1 $X=0.23 $Y=2.72
+ $X2=0.23 $Y2=2.72
r202 31 60 0.00168595 $w=2.5e-07 $l=8.5e-08 $layer=LI1_cond $X=3.55 $Y=2.635
+ $X2=3.55 $Y2=2.72
r203 31 33 31.116 $w=2.48e-07 $l=6.75e-07 $layer=LI1_cond $X=3.55 $Y=2.635
+ $X2=3.55 $Y2=1.96
r204 30 57 7.02821 $w=1.7e-07 $l=1.25e-07 $layer=LI1_cond $X=2.735 $Y=2.72
+ $X2=2.61 $Y2=2.72
r205 29 60 7.02821 $w=1.7e-07 $l=1.25e-07 $layer=LI1_cond $X=3.425 $Y=2.72
+ $X2=3.55 $Y2=2.72
r206 29 30 45.016 $w=1.68e-07 $l=6.9e-07 $layer=LI1_cond $X=3.425 $Y=2.72
+ $X2=2.735 $Y2=2.72
r207 25 57 0.00168595 $w=2.5e-07 $l=8.5e-08 $layer=LI1_cond $X=2.61 $Y=2.635
+ $X2=2.61 $Y2=2.72
r208 25 27 31.116 $w=2.48e-07 $l=6.75e-07 $layer=LI1_cond $X=2.61 $Y=2.635
+ $X2=2.61 $Y2=1.96
r209 24 54 7.02821 $w=1.7e-07 $l=1.25e-07 $layer=LI1_cond $X=1.795 $Y=2.72
+ $X2=1.67 $Y2=2.72
r210 23 57 7.02821 $w=1.7e-07 $l=1.25e-07 $layer=LI1_cond $X=2.485 $Y=2.72
+ $X2=2.61 $Y2=2.72
r211 23 24 45.016 $w=1.68e-07 $l=6.9e-07 $layer=LI1_cond $X=2.485 $Y=2.72
+ $X2=1.795 $Y2=2.72